* NGSPICE file created from vega_top.ext - technology: scmos

* Black-box entry subcircuit for FILL abstract view
.subckt FILL gnd vdd
.ends

* Black-box entry subcircuit for NAND2X1 abstract view
.subckt NAND2X1 A B gnd Y vdd
.ends

* Black-box entry subcircuit for OAI22X1 abstract view
.subckt OAI22X1 A B C D gnd Y vdd
.ends

* Black-box entry subcircuit for AOI22X1 abstract view
.subckt AOI22X1 A B C D gnd Y vdd
.ends

* Black-box entry subcircuit for OAI21X1 abstract view
.subckt OAI21X1 A B C gnd Y vdd
.ends

* Black-box entry subcircuit for AND2X2 abstract view
.subckt AND2X2 A B gnd Y vdd
.ends

* Black-box entry subcircuit for INVX1 abstract view
.subckt INVX1 A gnd Y vdd
.ends

* Black-box entry subcircuit for MUX2X1 abstract view
.subckt MUX2X1 A B S gnd Y vdd
.ends

* Black-box entry subcircuit for DFFSR abstract view
.subckt DFFSR Q CLK R S D gnd vdd
.ends

* Black-box entry subcircuit for BUFX4 abstract view
.subckt BUFX4 A gnd Y vdd
.ends

* Black-box entry subcircuit for AOI21X1 abstract view
.subckt AOI21X1 A B C gnd Y vdd
.ends

* Black-box entry subcircuit for NOR2X1 abstract view
.subckt NOR2X1 A B gnd Y vdd
.ends

* Black-box entry subcircuit for INVX2 abstract view
.subckt INVX2 A gnd Y vdd
.ends

* Black-box entry subcircuit for BUFX2 abstract view
.subckt BUFX2 A gnd Y vdd
.ends

* Black-box entry subcircuit for OR2X2 abstract view
.subckt OR2X2 A B gnd Y vdd
.ends

* Black-box entry subcircuit for INVX8 abstract view
.subckt INVX8 A gnd Y vdd
.ends

* Black-box entry subcircuit for NOR3X1 abstract view
.subckt NOR3X1 A B C gnd Y vdd
.ends

* Black-box entry subcircuit for NAND3X1 abstract view
.subckt NAND3X1 A B C gnd Y vdd
.ends

* Black-box entry subcircuit for CLKBUF1 abstract view
.subckt CLKBUF1 A gnd Y vdd
.ends

* Black-box entry subcircuit for XOR2X1 abstract view
.subckt XOR2X1 A B gnd Y vdd
.ends

* Black-box entry subcircuit for INVX4 abstract view
.subckt INVX4 A gnd Y vdd
.ends

* Black-box entry subcircuit for XNOR2X1 abstract view
.subckt XNOR2X1 A B gnd Y vdd
.ends

.subckt vega_top vdd gnd clk rst_n ext_wakeup_in rtc_wakeup_in irq_wakeup_in ext_wakeup_en
+ rtc_wakeup_en irq_wakeup_en thermal_alert battery_low fault_in psel penable pwrite
+ paddr[0] paddr[1] paddr[2] paddr[3] paddr[4] paddr[5] paddr[6] paddr[7] pwdata[0]
+ pwdata[1] pwdata[2] pwdata[3] pwdata[4] pwdata[5] pwdata[6] pwdata[7] pwdata[8]
+ pwdata[9] pwdata[10] pwdata[11] pwdata[12] pwdata[13] pwdata[14] pwdata[15] pwdata[16]
+ pwdata[17] pwdata[18] pwdata[19] pwdata[20] pwdata[21] pwdata[22] pwdata[23] pwdata[24]
+ pwdata[25] pwdata[26] pwdata[27] pwdata[28] pwdata[29] pwdata[30] pwdata[31] reg_wr_en
+ reg_rd_en reg_addr[0] reg_addr[1] reg_addr[2] reg_addr[3] reg_addr[4] reg_addr[5]
+ reg_addr[6] reg_addr[7] reg_wdata[0] reg_wdata[1] reg_wdata[2] reg_wdata[3] reg_wdata[4]
+ reg_wdata[5] reg_wdata[6] reg_wdata[7] reg_wdata[8] reg_wdata[9] reg_wdata[10] reg_wdata[11]
+ reg_wdata[12] reg_wdata[13] reg_wdata[14] reg_wdata[15] reg_wdata[16] reg_wdata[17]
+ reg_wdata[18] reg_wdata[19] reg_wdata[20] reg_wdata[21] reg_wdata[22] reg_wdata[23]
+ reg_wdata[24] reg_wdata[25] reg_wdata[26] reg_wdata[27] reg_wdata[28] reg_wdata[29]
+ reg_wdata[30] reg_wdata[31] sensor0_data[0] sensor0_data[1] sensor0_data[2] sensor0_data[3]
+ sensor0_data[4] sensor0_data[5] sensor0_data[6] sensor0_data[7] sensor0_data[8]
+ sensor0_data[9] sensor0_data[10] sensor0_data[11] sensor0_data[12] sensor0_data[13]
+ sensor0_data[14] sensor0_data[15] sensor0_data[16] sensor0_data[17] sensor0_data[18]
+ sensor0_data[19] sensor0_data[20] sensor0_data[21] sensor0_data[22] sensor0_data[23]
+ sensor0_data[24] sensor0_data[25] sensor0_data[26] sensor0_data[27] sensor0_data[28]
+ sensor0_data[29] sensor0_data[30] sensor0_data[31] sensor1_data[0] sensor1_data[1]
+ sensor1_data[2] sensor1_data[3] sensor1_data[4] sensor1_data[5] sensor1_data[6]
+ sensor1_data[7] sensor1_data[8] sensor1_data[9] sensor1_data[10] sensor1_data[11]
+ sensor1_data[12] sensor1_data[13] sensor1_data[14] sensor1_data[15] sensor1_data[16]
+ sensor1_data[17] sensor1_data[18] sensor1_data[19] sensor1_data[20] sensor1_data[21]
+ sensor1_data[22] sensor1_data[23] sensor1_data[24] sensor1_data[25] sensor1_data[26]
+ sensor1_data[27] sensor1_data[28] sensor1_data[29] sensor1_data[30] sensor1_data[31]
+ sensor2_data[0] sensor2_data[1] sensor2_data[2] sensor2_data[3] sensor2_data[4]
+ sensor2_data[5] sensor2_data[6] sensor2_data[7] sensor2_data[8] sensor2_data[9]
+ sensor2_data[10] sensor2_data[11] sensor2_data[12] sensor2_data[13] sensor2_data[14]
+ sensor2_data[15] sensor2_data[16] sensor2_data[17] sensor2_data[18] sensor2_data[19]
+ sensor2_data[20] sensor2_data[21] sensor2_data[22] sensor2_data[23] sensor2_data[24]
+ sensor2_data[25] sensor2_data[26] sensor2_data[27] sensor2_data[28] sensor2_data[29]
+ sensor2_data[30] sensor2_data[31] prdata[0] prdata[1] prdata[2] prdata[3] prdata[4]
+ prdata[5] prdata[6] prdata[7] prdata[8] prdata[9] prdata[10] prdata[11] prdata[12]
+ prdata[13] prdata[14] prdata[15] prdata[16] prdata[17] prdata[18] prdata[19] prdata[20]
+ prdata[21] prdata[22] prdata[23] prdata[24] prdata[25] prdata[26] prdata[27] prdata[28]
+ prdata[29] prdata[30] prdata[31] pready pslverr reg_rdata[0] reg_rdata[1] reg_rdata[2]
+ reg_rdata[3] reg_rdata[4] reg_rdata[5] reg_rdata[6] reg_rdata[7] reg_rdata[8] reg_rdata[9]
+ reg_rdata[10] reg_rdata[11] reg_rdata[12] reg_rdata[13] reg_rdata[14] reg_rdata[15]
+ reg_rdata[16] reg_rdata[17] reg_rdata[18] reg_rdata[19] reg_rdata[20] reg_rdata[21]
+ reg_rdata[22] reg_rdata[23] reg_rdata[24] reg_rdata[25] reg_rdata[26] reg_rdata[27]
+ reg_rdata[28] reg_rdata[29] reg_rdata[30] reg_rdata[31] reg_ack pmu_active pmu_sleeping
+ pmu_fault pmu_state_out[0] pmu_state_out[1] pmu_state_out[2] pmu_state_out[3] irq_out
+ wakeup_src_status[0] wakeup_src_status[1] wakeup_src_status[2]
XFILL_9_6_0 gnd vdd FILL
XFILL_16_DFFSR_25 gnd vdd FILL
XFILL_16_DFFSR_36 gnd vdd FILL
XFILL_16_DFFSR_47 gnd vdd FILL
XFILL_16_DFFSR_58 gnd vdd FILL
XFILL_3_OAI21X1_400 gnd vdd FILL
XFILL_16_DFFSR_69 gnd vdd FILL
XFILL_3_OAI21X1_411 gnd vdd FILL
XFILL_2_OAI21X1_240 gnd vdd FILL
XFILL_3_OAI21X1_422 gnd vdd FILL
XFILL_2_OAI21X1_251 gnd vdd FILL
XFILL_4_OAI21X1_604 gnd vdd FILL
XFILL_3_OAI21X1_433 gnd vdd FILL
XFILL_4_OAI21X1_615 gnd vdd FILL
XFILL_2_OAI21X1_262 gnd vdd FILL
XFILL_3_OAI21X1_444 gnd vdd FILL
XFILL_4_OAI21X1_626 gnd vdd FILL
XNAND2X1_580 NAND2X1_727/A BUFX4_261/Y gnd NAND2X1_580/Y vdd NAND2X1
XFILL_2_OAI21X1_273 gnd vdd FILL
XFILL_2_OAI21X1_284 gnd vdd FILL
XFILL_48_1_2 gnd vdd FILL
XFILL_3_OAI21X1_455 gnd vdd FILL
XFILL_4_OAI21X1_637 gnd vdd FILL
XFILL_2_OAI21X1_295 gnd vdd FILL
XFILL_3_OAI21X1_466 gnd vdd FILL
XNAND2X1_591 NAND2X1_748/A BUFX4_262/Y gnd NAND2X1_591/Y vdd NAND2X1
XFILL_4_OAI21X1_648 gnd vdd FILL
XFILL_3_OAI21X1_477 gnd vdd FILL
XFILL_4_OAI21X1_659 gnd vdd FILL
XFILL_3_OAI21X1_488 gnd vdd FILL
XFILL_3_OAI21X1_499 gnd vdd FILL
XFILL_0_NAND2X1_309 gnd vdd FILL
XFILL_0_INVX1_301 gnd vdd FILL
XFILL_11_DFFSR_640 gnd vdd FILL
XFILL_11_DFFSR_651 gnd vdd FILL
XFILL_0_INVX1_312 gnd vdd FILL
XFILL_11_DFFSR_662 gnd vdd FILL
XFILL_0_INVX1_323 gnd vdd FILL
XFILL_17_5_0 gnd vdd FILL
XFILL_0_INVX1_334 gnd vdd FILL
XFILL_11_DFFSR_673 gnd vdd FILL
XFILL_4_DFFSR_509 gnd vdd FILL
XFILL_11_DFFSR_684 gnd vdd FILL
XFILL_0_INVX1_345 gnd vdd FILL
XFILL_11_DFFSR_695 gnd vdd FILL
XFILL_0_INVX1_356 gnd vdd FILL
XFILL_25_DFFSR_12 gnd vdd FILL
XFILL_0_INVX1_367 gnd vdd FILL
XFILL_25_DFFSR_23 gnd vdd FILL
XFILL_23_DFFSR_360 gnd vdd FILL
XFILL_0_INVX1_378 gnd vdd FILL
XFILL_25_DFFSR_34 gnd vdd FILL
XFILL_23_DFFSR_371 gnd vdd FILL
XFILL_0_INVX1_389 gnd vdd FILL
XFILL_60_8_1 gnd vdd FILL
XFILL_0_AND2X2_70 gnd vdd FILL
XFILL_25_DFFSR_45 gnd vdd FILL
XFILL_1_CLKBUF1_103 gnd vdd FILL
XFILL_15_DFFSR_650 gnd vdd FILL
XFILL_0_AND2X2_81 gnd vdd FILL
XFILL_25_DFFSR_56 gnd vdd FILL
XFILL_23_DFFSR_382 gnd vdd FILL
XFILL_23_DFFSR_393 gnd vdd FILL
XFILL_0_AND2X2_92 gnd vdd FILL
XFILL_15_DFFSR_661 gnd vdd FILL
XFILL_8_DFFSR_508 gnd vdd FILL
XFILL_15_DFFSR_672 gnd vdd FILL
XFILL_25_DFFSR_67 gnd vdd FILL
XFILL_31_0_2 gnd vdd FILL
XFILL_25_DFFSR_78 gnd vdd FILL
XFILL_15_DFFSR_683 gnd vdd FILL
XFILL_25_DFFSR_89 gnd vdd FILL
XFILL_8_DFFSR_519 gnd vdd FILL
XFILL_15_DFFSR_694 gnd vdd FILL
XFILL_2_NAND2X1_290 gnd vdd FILL
XFILL_3_NAND2X1_472 gnd vdd FILL
XFILL_0_MUX2X1_9 gnd vdd FILL
XFILL_3_NAND2X1_494 gnd vdd FILL
XFILL_4_AND2X2_80 gnd vdd FILL
XFILL_4_AND2X2_91 gnd vdd FILL
XFILL_19_DFFSR_660 gnd vdd FILL
XFILL_19_DFFSR_671 gnd vdd FILL
XFILL_19_DFFSR_682 gnd vdd FILL
XFILL_19_DFFSR_693 gnd vdd FILL
XFILL_22_11_1 gnd vdd FILL
XFILL_3_OAI21X1_1190 gnd vdd FILL
XFILL_8_DFFSR_13 gnd vdd FILL
XFILL_8_DFFSR_24 gnd vdd FILL
XFILL_19_DFFSR_9 gnd vdd FILL
XFILL_8_DFFSR_35 gnd vdd FILL
XFILL_8_DFFSR_46 gnd vdd FILL
XFILL_0_OAI21X1_804 gnd vdd FILL
XFILL_8_DFFSR_57 gnd vdd FILL
XFILL_0_OAI21X1_815 gnd vdd FILL
XFILL_1_AOI21X1_104 gnd vdd FILL
XFILL_8_DFFSR_68 gnd vdd FILL
XFILL_0_OAI21X1_826 gnd vdd FILL
XFILL_8_DFFSR_79 gnd vdd FILL
XFILL_20_DFFSR_507 gnd vdd FILL
XFILL_3_CLKBUF1_90 gnd vdd FILL
XFILL_1_AOI21X1_115 gnd vdd FILL
XFILL_0_OAI21X1_837 gnd vdd FILL
XFILL_1_AOI21X1_126 gnd vdd FILL
XFILL_20_DFFSR_518 gnd vdd FILL
XFILL_1_AOI21X1_137 gnd vdd FILL
XFILL_20_DFFSR_529 gnd vdd FILL
XFILL_2_AOI21X1_308 gnd vdd FILL
XFILL_0_OAI21X1_848 gnd vdd FILL
XFILL_2_AOI21X1_319 gnd vdd FILL
XFILL_0_OAI21X1_859 gnd vdd FILL
XFILL_1_AOI21X1_148 gnd vdd FILL
XFILL_1_AOI21X1_159 gnd vdd FILL
XFILL_72_1 gnd vdd FILL
XFILL_1_DFFSR_240 gnd vdd FILL
XFILL_1_DFFSR_251 gnd vdd FILL
XFILL_68_9_1 gnd vdd FILL
XFILL_24_DFFSR_506 gnd vdd FILL
XFILL_24_DFFSR_517 gnd vdd FILL
XFILL_1_DFFSR_262 gnd vdd FILL
XFILL_24_DFFSR_528 gnd vdd FILL
XFILL_1_DFFSR_273 gnd vdd FILL
XFILL_1_DFFSR_284 gnd vdd FILL
XFILL_67_4_0 gnd vdd FILL
XFILL_24_DFFSR_539 gnd vdd FILL
XFILL_39_1_2 gnd vdd FILL
XFILL_1_DFFSR_295 gnd vdd FILL
XOAI22X1_180 INVX1_505/Y INVX2_69/A INVX1_542/Y BUFX4_487/Y gnd NOR2X1_369/B vdd OAI22X1
XOAI22X1_191 INVX1_773/Y INVX8_19/A INVX1_638/Y OAI22X1_95/D gnd NOR2X1_384/A vdd
+ OAI22X1
XFILL_5_DFFSR_250 gnd vdd FILL
XFILL_5_DFFSR_261 gnd vdd FILL
XFILL_0_NAND2X1_810 gnd vdd FILL
XFILL_5_DFFSR_272 gnd vdd FILL
XFILL_0_NAND2X1_821 gnd vdd FILL
XFILL_5_DFFSR_283 gnd vdd FILL
XFILL_2_MUX2X1_17 gnd vdd FILL
XFILL_0_OAI21X1_1603 gnd vdd FILL
XFILL_2_MUX2X1_28 gnd vdd FILL
XFILL_0_NAND2X1_832 gnd vdd FILL
XFILL_5_DFFSR_294 gnd vdd FILL
XFILL_0_NAND2X1_843 gnd vdd FILL
XFILL_0_OAI21X1_1614 gnd vdd FILL
XFILL_0_NAND2X1_854 gnd vdd FILL
XFILL_0_NAND2X1_865 gnd vdd FILL
XFILL_0_NAND2X1_876 gnd vdd FILL
XFILL_9_DFFSR_260 gnd vdd FILL
XFILL_0_NAND2X1_887 gnd vdd FILL
XFILL_0_NAND2X1_898 gnd vdd FILL
XFILL_51_8_1 gnd vdd FILL
XFILL_9_DFFSR_271 gnd vdd FILL
XFILL_9_DFFSR_282 gnd vdd FILL
XFILL_50_3_0 gnd vdd FILL
XFILL_6_MUX2X1_16 gnd vdd FILL
XFILL_6_MUX2X1_27 gnd vdd FILL
XFILL_9_DFFSR_293 gnd vdd FILL
XFILL_22_0_2 gnd vdd FILL
XFILL_27_10_1 gnd vdd FILL
XFILL_12_DFFSR_40 gnd vdd FILL
XFILL_12_DFFSR_51 gnd vdd FILL
XFILL_4_OAI22X1_210 gnd vdd FILL
XFILL_12_DFFSR_62 gnd vdd FILL
XFILL_12_DFFSR_73 gnd vdd FILL
XFILL_12_DFFSR_84 gnd vdd FILL
XFILL_12_DFFSR_95 gnd vdd FILL
XFILL_2_DFFSR_408 gnd vdd FILL
XFILL_2_DFFSR_419 gnd vdd FILL
XFILL_1_NAND3X1_108 gnd vdd FILL
XFILL_1_NAND3X1_119 gnd vdd FILL
XFILL_21_DFFSR_270 gnd vdd FILL
XFILL_21_DFFSR_281 gnd vdd FILL
XFILL_13_DFFSR_560 gnd vdd FILL
XFILL_1_DFFSR_1 gnd vdd FILL
XFILL_21_DFFSR_292 gnd vdd FILL
XFILL_2_INVX1_221 gnd vdd FILL
XFILL_6_DFFSR_407 gnd vdd FILL
XFILL_2_INVX1_232 gnd vdd FILL
XFILL_13_DFFSR_571 gnd vdd FILL
XFILL_6_DFFSR_418 gnd vdd FILL
XFILL_13_DFFSR_582 gnd vdd FILL
XFILL_6_DFFSR_429 gnd vdd FILL
XFILL_13_DFFSR_593 gnd vdd FILL
XFILL_2_INVX1_265 gnd vdd FILL
XAOI22X1_204 INVX1_629/A BUFX4_337/Y INVX1_737/A BUFX4_364/Y gnd AOI22X1_204/Y vdd
+ AOI22X1
XFILL_2_INVX1_276 gnd vdd FILL
XAOI22X1_215 BUFX4_403/Y INVX1_483/Y INVX1_481/Y NOR2X1_351/Y gnd INVX1_384/A vdd
+ AOI22X1
XFILL_25_DFFSR_280 gnd vdd FILL
XFILL_21_DFFSR_60 gnd vdd FILL
XAOI22X1_226 INVX1_573/A NOR3X1_15/Y INVX1_538/A INVX4_6/Y gnd INVX1_488/A vdd AOI22X1
XFILL_59_9_1 gnd vdd FILL
XFILL_21_DFFSR_71 gnd vdd FILL
XFILL_25_DFFSR_291 gnd vdd FILL
XAOI22X1_237 INVX1_635/A BUFX4_338/Y INVX1_542/A BUFX4_145/Y gnd NAND3X1_151/A vdd
+ AOI22X1
XAOI22X1_248 INVX1_294/A BUFX4_497/Y INVX1_769/A BUFX4_313/Y gnd NAND3X1_157/A vdd
+ AOI22X1
XFILL_17_DFFSR_570 gnd vdd FILL
XFILL_21_DFFSR_82 gnd vdd FILL
XAOI22X1_259 DFFSR_85/Q BUFX4_41/Y DFFSR_94/Q BUFX4_417/Y gnd AOI22X1_259/Y vdd AOI22X1
XFILL_58_4_0 gnd vdd FILL
XFILL_17_DFFSR_581 gnd vdd FILL
XFILL_21_DFFSR_93 gnd vdd FILL
XFILL_17_DFFSR_592 gnd vdd FILL
XFILL_6_NOR3X1_4 gnd vdd FILL
XFILL_5_OAI22X1_19 gnd vdd FILL
XFILL_5_1_2 gnd vdd FILL
XFILL_0_INVX2_109 gnd vdd FILL
XFILL_2_BUFX4_530 gnd vdd FILL
XFILL_2_11_1 gnd vdd FILL
XFILL_2_BUFX4_541 gnd vdd FILL
XFILL_2_BUFX4_552 gnd vdd FILL
XFILL_4_NAND3X1_40 gnd vdd FILL
XFILL_4_NAND3X1_51 gnd vdd FILL
XFILL_2_BUFX4_563 gnd vdd FILL
XFILL_4_NAND3X1_62 gnd vdd FILL
XFILL_2_BUFX4_574 gnd vdd FILL
XFILL_4_NAND3X1_73 gnd vdd FILL
XFILL_10_DFFSR_707 gnd vdd FILL
XFILL_10_DFFSR_718 gnd vdd FILL
XFILL_10_DFFSR_729 gnd vdd FILL
XFILL_4_DFFSR_50 gnd vdd FILL
XFILL_42_8_1 gnd vdd FILL
XFILL_4_DFFSR_61 gnd vdd FILL
XFILL_4_DFFSR_72 gnd vdd FILL
XFILL_3_AOI22X1_107 gnd vdd FILL
XFILL_22_DFFSR_405 gnd vdd FILL
XFILL_3_AOI22X1_118 gnd vdd FILL
XFILL_41_3_0 gnd vdd FILL
XFILL_4_DFFSR_83 gnd vdd FILL
XFILL_22_DFFSR_416 gnd vdd FILL
XFILL_3_AOI22X1_129 gnd vdd FILL
XFILL_13_0_2 gnd vdd FILL
XFILL_4_DFFSR_94 gnd vdd FILL
XFILL_22_DFFSR_427 gnd vdd FILL
XFILL_3_INVX8_9 gnd vdd FILL
XFILL_45_11_1 gnd vdd FILL
XFILL_14_DFFSR_706 gnd vdd FILL
XFILL_22_DFFSR_438 gnd vdd FILL
XFILL_14_DFFSR_717 gnd vdd FILL
XFILL_22_DFFSR_449 gnd vdd FILL
XFILL_14_DFFSR_728 gnd vdd FILL
XFILL_14_DFFSR_739 gnd vdd FILL
XFILL_26_DFFSR_404 gnd vdd FILL
XFILL_3_DFFSR_160 gnd vdd FILL
XFILL_26_DFFSR_426 gnd vdd FILL
XFILL_3_DFFSR_171 gnd vdd FILL
XOAI21X1_360 INVX2_39/Y BUFX4_529/Y OAI21X1_361/Y gnd DFFSR_88/D vdd OAI21X1
XFILL_3_DFFSR_182 gnd vdd FILL
XFILL_26_DFFSR_437 gnd vdd FILL
XOAI21X1_371 INVX4_4/A NOR2X1_184/B OAI21X1_371/C gnd NOR2X1_146/A vdd OAI21X1
XFILL_1_OAI21X1_1309 gnd vdd FILL
XFILL_3_DFFSR_193 gnd vdd FILL
XFILL_18_DFFSR_705 gnd vdd FILL
XFILL_18_DFFSR_716 gnd vdd FILL
XOAI21X1_382 BUFX4_458/Y OAI21X1_382/B OAI21X1_383/Y gnd DFFSR_1/D vdd OAI21X1
XAND2X2_5 AND2X2_5/A AND2X2_5/B gnd AND2X2_5/Y vdd AND2X2
XFILL_26_DFFSR_448 gnd vdd FILL
XFILL_18_DFFSR_727 gnd vdd FILL
XFILL_26_DFFSR_459 gnd vdd FILL
XINVX1_402 INVX1_402/A gnd INVX1_402/Y vdd INVX1
XFILL_18_DFFSR_738 gnd vdd FILL
XOAI21X1_393 BUFX4_399/Y BUFX4_461/Y DFFSR_553/Q gnd OAI21X1_393/Y vdd OAI21X1
XFILL_20_DFFSR_9 gnd vdd FILL
XINVX1_413 INVX1_413/A gnd INVX1_413/Y vdd INVX1
XFILL_18_DFFSR_749 gnd vdd FILL
XINVX1_424 INVX1_424/A gnd OR2X2_45/A vdd INVX1
XFILL_6_AOI22X1_270 gnd vdd FILL
XFILL_7_CLKBUF1_108 gnd vdd FILL
XINVX1_435 INVX1_435/A gnd INVX1_435/Y vdd INVX1
XINVX1_446 INVX1_446/A gnd INVX1_446/Y vdd INVX1
XFILL_7_DFFSR_170 gnd vdd FILL
XINVX1_457 INVX1_457/A gnd INVX1_457/Y vdd INVX1
XFILL_7_DFFSR_181 gnd vdd FILL
XFILL_7_DFFSR_192 gnd vdd FILL
XINVX1_468 INVX1_468/A gnd INVX1_468/Y vdd INVX1
XINVX1_479 INVX1_479/A gnd INVX1_479/Y vdd INVX1
XFILL_7_10_1 gnd vdd FILL
XFILL_49_4_0 gnd vdd FILL
XFILL_4_OAI21X1_401 gnd vdd FILL
XFILL_3_OAI21X1_230 gnd vdd FILL
XFILL_4_OAI21X1_412 gnd vdd FILL
XFILL_3_OAI21X1_241 gnd vdd FILL
XFILL_4_OAI21X1_423 gnd vdd FILL
XFILL_0_DFFSR_307 gnd vdd FILL
XFILL_3_OAI21X1_252 gnd vdd FILL
XFILL_4_OAI21X1_434 gnd vdd FILL
XFILL_3_OAI21X1_263 gnd vdd FILL
XFILL_0_DFFSR_318 gnd vdd FILL
XFILL_4_OAI21X1_445 gnd vdd FILL
XFILL_0_DFFSR_329 gnd vdd FILL
XFILL_3_OAI21X1_274 gnd vdd FILL
XFILL_3_OAI21X1_285 gnd vdd FILL
XFILL_4_OAI21X1_456 gnd vdd FILL
XFILL_3_OAI21X1_296 gnd vdd FILL
XFILL_4_OAI21X1_467 gnd vdd FILL
XFILL_4_OAI21X1_478 gnd vdd FILL
XFILL_0_NAND2X1_106 gnd vdd FILL
XFILL_6_CLKBUF1_12 gnd vdd FILL
XFILL_4_OAI21X1_489 gnd vdd FILL
XFILL_0_NAND2X1_117 gnd vdd FILL
XFILL_0_NAND2X1_128 gnd vdd FILL
XFILL_6_CLKBUF1_23 gnd vdd FILL
XFILL_6_CLKBUF1_34 gnd vdd FILL
XFILL_0_NAND2X1_139 gnd vdd FILL
XFILL_0_INVX1_120 gnd vdd FILL
XFILL_11_DFFSR_470 gnd vdd FILL
XFILL_6_CLKBUF1_45 gnd vdd FILL
XFILL_4_DFFSR_306 gnd vdd FILL
XFILL_0_INVX1_131 gnd vdd FILL
XFILL_4_DFFSR_317 gnd vdd FILL
XFILL_11_DFFSR_481 gnd vdd FILL
XFILL_6_CLKBUF1_56 gnd vdd FILL
XFILL_1_AOI21X1_20 gnd vdd FILL
XFILL_11_DFFSR_492 gnd vdd FILL
XFILL_0_INVX1_142 gnd vdd FILL
XFILL_6_CLKBUF1_67 gnd vdd FILL
XFILL_4_DFFSR_328 gnd vdd FILL
XFILL_1_AOI21X1_31 gnd vdd FILL
XFILL_0_INVX1_153 gnd vdd FILL
XFILL_37_4 gnd vdd FILL
XFILL_6_CLKBUF1_78 gnd vdd FILL
XFILL_1_AOI21X1_42 gnd vdd FILL
XFILL_4_DFFSR_339 gnd vdd FILL
XFILL_0_INVX1_164 gnd vdd FILL
XFILL_1_AOI21X1_53 gnd vdd FILL
XFILL_0_INVX1_175 gnd vdd FILL
XFILL_33_8_1 gnd vdd FILL
XFILL_6_CLKBUF1_89 gnd vdd FILL
XFILL_0_INVX1_186 gnd vdd FILL
XFILL_1_AOI21X1_64 gnd vdd FILL
XFILL_1_AOI21X1_75 gnd vdd FILL
XFILL_32_3_0 gnd vdd FILL
XFILL_23_DFFSR_190 gnd vdd FILL
XFILL_0_INVX1_197 gnd vdd FILL
XFILL_1_AOI21X1_86 gnd vdd FILL
XFILL_8_DFFSR_305 gnd vdd FILL
XFILL_1_AOI21X1_97 gnd vdd FILL
XFILL_2_CLKBUF1_104 gnd vdd FILL
XFILL_8_DFFSR_316 gnd vdd FILL
XFILL_15_DFFSR_480 gnd vdd FILL
XFILL_8_DFFSR_327 gnd vdd FILL
XFILL_15_DFFSR_491 gnd vdd FILL
XFILL_8_DFFSR_338 gnd vdd FILL
XFILL_8_DFFSR_349 gnd vdd FILL
XFILL_3_NAND2X1_280 gnd vdd FILL
XFILL_3_NAND2X1_291 gnd vdd FILL
XOAI21X1_1601 INVX1_52/Y BUFX4_324/Y NAND2X1_939/Y gnd DFFSR_729/D vdd OAI21X1
XFILL_19_DFFSR_490 gnd vdd FILL
XFILL_0_BUFX4_440 gnd vdd FILL
XOAI21X1_1612 INVX1_63/Y BUFX4_330/Y NAND2X1_950/Y gnd DFFSR_687/D vdd OAI21X1
XFILL_0_BUFX4_451 gnd vdd FILL
XFILL_0_BUFX4_462 gnd vdd FILL
XFILL_0_BUFX4_473 gnd vdd FILL
XFILL_0_BUFX4_484 gnd vdd FILL
XFILL_0_BUFX4_495 gnd vdd FILL
XFILL_0_OAI21X1_601 gnd vdd FILL
XFILL_0_OAI21X1_612 gnd vdd FILL
XFILL_0_OAI21X1_623 gnd vdd FILL
XFILL_20_DFFSR_304 gnd vdd FILL
XFILL_4_BUFX4_450 gnd vdd FILL
XFILL_2_OAI22X1_3 gnd vdd FILL
XFILL_1_OAI21X1_805 gnd vdd FILL
XFILL_20_DFFSR_315 gnd vdd FILL
XFILL_0_OAI21X1_634 gnd vdd FILL
XFILL_20_DFFSR_326 gnd vdd FILL
XFILL_0_OAI21X1_645 gnd vdd FILL
XFILL_4_BUFX4_461 gnd vdd FILL
XFILL_1_OAI21X1_816 gnd vdd FILL
XFILL_2_AOI21X1_105 gnd vdd FILL
XFILL_0_OAI21X1_656 gnd vdd FILL
XFILL_20_DFFSR_337 gnd vdd FILL
XFILL_1_OAI21X1_827 gnd vdd FILL
XFILL_12_DFFSR_605 gnd vdd FILL
XFILL_4_BUFX4_472 gnd vdd FILL
XFILL_2_AOI21X1_116 gnd vdd FILL
XFILL_0_OAI21X1_667 gnd vdd FILL
XFILL_1_OAI21X1_838 gnd vdd FILL
XFILL_20_DFFSR_348 gnd vdd FILL
XFILL_12_DFFSR_616 gnd vdd FILL
XFILL_4_BUFX4_483 gnd vdd FILL
XFILL_2_AOI21X1_127 gnd vdd FILL
XFILL_2_AOI21X1_138 gnd vdd FILL
XFILL_0_OAI21X1_678 gnd vdd FILL
XFILL_1_OAI21X1_849 gnd vdd FILL
XFILL_4_BUFX4_494 gnd vdd FILL
XFILL_3_AOI21X1_309 gnd vdd FILL
XFILL_20_DFFSR_359 gnd vdd FILL
XFILL_12_DFFSR_627 gnd vdd FILL
XFILL_0_OAI21X1_689 gnd vdd FILL
XFILL_2_AOI21X1_149 gnd vdd FILL
XFILL_12_DFFSR_638 gnd vdd FILL
XFILL_12_DFFSR_649 gnd vdd FILL
XFILL_24_DFFSR_303 gnd vdd FILL
XFILL_24_DFFSR_314 gnd vdd FILL
XFILL_24_DFFSR_325 gnd vdd FILL
XFILL_1_AND2X2_13 gnd vdd FILL
XFILL_1_AND2X2_24 gnd vdd FILL
XFILL_16_DFFSR_604 gnd vdd FILL
XFILL_24_DFFSR_336 gnd vdd FILL
XFILL_1_AND2X2_35 gnd vdd FILL
XFILL_16_DFFSR_615 gnd vdd FILL
XFILL_1_AND2X2_46 gnd vdd FILL
XFILL_24_DFFSR_347 gnd vdd FILL
XFILL_24_DFFSR_358 gnd vdd FILL
XFILL_1_OAI22X1_50 gnd vdd FILL
XFILL_16_DFFSR_626 gnd vdd FILL
XFILL_1_AND2X2_57 gnd vdd FILL
XFILL_24_DFFSR_369 gnd vdd FILL
XFILL_1_OAI22X1_61 gnd vdd FILL
XFILL_1_AND2X2_68 gnd vdd FILL
XFILL_16_DFFSR_637 gnd vdd FILL
XFILL_1_OAI22X1_72 gnd vdd FILL
XFILL_16_DFFSR_648 gnd vdd FILL
XFILL_1_AND2X2_79 gnd vdd FILL
XFILL_1_OAI22X1_83 gnd vdd FILL
XFILL_16_DFFSR_659 gnd vdd FILL
XFILL_1_OAI22X1_94 gnd vdd FILL
XFILL_4_OAI21X1_990 gnd vdd FILL
XFILL_1_NAND2X1_800 gnd vdd FILL
XFILL_0_OAI21X1_1400 gnd vdd FILL
XFILL_1_NAND2X1_811 gnd vdd FILL
XFILL_0_OAI21X1_1411 gnd vdd FILL
XFILL_0_NAND2X1_640 gnd vdd FILL
XFILL_68_11_1 gnd vdd FILL
XFILL_1_NAND2X1_822 gnd vdd FILL
XFILL_0_OAI21X1_1422 gnd vdd FILL
XFILL_0_NAND2X1_651 gnd vdd FILL
XFILL_5_DFFSR_2 gnd vdd FILL
XFILL_1_NAND2X1_833 gnd vdd FILL
XFILL_0_OAI21X1_1433 gnd vdd FILL
XFILL_0_NAND2X1_662 gnd vdd FILL
XFILL_1_NAND2X1_844 gnd vdd FILL
XFILL_0_OAI21X1_1444 gnd vdd FILL
XFILL_24_8_1 gnd vdd FILL
XFILL_0_NAND2X1_673 gnd vdd FILL
XFILL_1_NAND2X1_855 gnd vdd FILL
XFILL_0_NAND2X1_684 gnd vdd FILL
XFILL_0_OAI21X1_1455 gnd vdd FILL
XFILL_1_NAND2X1_866 gnd vdd FILL
XFILL_0_NAND2X1_695 gnd vdd FILL
XFILL_1_NAND2X1_877 gnd vdd FILL
XFILL_0_OAI21X1_1466 gnd vdd FILL
XFILL_23_3_0 gnd vdd FILL
XFILL_0_OAI21X1_1477 gnd vdd FILL
XFILL_0_OAI21X1_1488 gnd vdd FILL
XFILL_1_NAND2X1_888 gnd vdd FILL
XFILL_1_NAND2X1_899 gnd vdd FILL
XFILL_0_OAI21X1_1499 gnd vdd FILL
XFILL_10_CLKBUF1_9 gnd vdd FILL
XFILL_0_BUFX2_8 gnd vdd FILL
XFILL_5_OAI22X1_200 gnd vdd FILL
XFILL_5_OAI22X1_211 gnd vdd FILL
XFILL_2_DFFSR_205 gnd vdd FILL
XFILL_2_DFFSR_216 gnd vdd FILL
XFILL_2_DFFSR_227 gnd vdd FILL
XFILL_2_DFFSR_238 gnd vdd FILL
XFILL_2_DFFSR_249 gnd vdd FILL
XFILL_2_NAND3X1_109 gnd vdd FILL
XFILL_13_DFFSR_18 gnd vdd FILL
XFILL_13_DFFSR_29 gnd vdd FILL
XFILL_6_DFFSR_204 gnd vdd FILL
XFILL_3_NAND3X1_4 gnd vdd FILL
XFILL_6_DFFSR_215 gnd vdd FILL
XFILL_13_DFFSR_390 gnd vdd FILL
XFILL_6_DFFSR_226 gnd vdd FILL
XFILL_6_DFFSR_237 gnd vdd FILL
XFILL_6_DFFSR_248 gnd vdd FILL
XFILL_6_DFFSR_259 gnd vdd FILL
XFILL_1_INVX1_800 gnd vdd FILL
XFILL_7_9_1 gnd vdd FILL
XFILL_3_NOR2X1_341 gnd vdd FILL
XFILL_1_INVX1_811 gnd vdd FILL
XFILL_3_NOR2X1_352 gnd vdd FILL
XFILL_6_4_0 gnd vdd FILL
XFILL_3_NOR2X1_363 gnd vdd FILL
XFILL_3_NOR2X1_374 gnd vdd FILL
XFILL_3_NOR2X1_385 gnd vdd FILL
XFILL_2_OAI21X1_1505 gnd vdd FILL
XFILL_2_OAI21X1_1516 gnd vdd FILL
XFILL_3_NOR2X1_396 gnd vdd FILL
XFILL_2_OAI21X1_1527 gnd vdd FILL
XFILL_2_OAI21X1_1538 gnd vdd FILL
XMUX2X1_17 MUX2X1_17/A MUX2X1_17/B MUX2X1_4/S gnd MUX2X1_17/Y vdd MUX2X1
XFILL_0_NAND2X1_19 gnd vdd FILL
XMUX2X1_28 MUX2X1_29/Y MUX2X1_28/B MUX2X1_28/S gnd MUX2X1_28/Y vdd MUX2X1
XFILL_2_OAI21X1_1549 gnd vdd FILL
XFILL_12_11_0 gnd vdd FILL
XFILL_22_DFFSR_16 gnd vdd FILL
XFILL_22_DFFSR_27 gnd vdd FILL
XFILL_22_DFFSR_38 gnd vdd FILL
XFILL_22_DFFSR_49 gnd vdd FILL
XFILL_2_BUFX4_360 gnd vdd FILL
XFILL_2_BUFX4_371 gnd vdd FILL
XFILL_2_BUFX4_382 gnd vdd FILL
XFILL_0_INVX2_8 gnd vdd FILL
XFILL_10_DFFSR_504 gnd vdd FILL
XFILL_10_DFFSR_515 gnd vdd FILL
XFILL_15_8_1 gnd vdd FILL
XFILL_2_BUFX4_393 gnd vdd FILL
XFILL_10_DFFSR_526 gnd vdd FILL
XFILL_10_DFFSR_537 gnd vdd FILL
XFILL_10_DFFSR_548 gnd vdd FILL
XFILL_14_3_0 gnd vdd FILL
XFILL_22_DFFSR_202 gnd vdd FILL
XFILL_10_DFFSR_559 gnd vdd FILL
XFILL_22_DFFSR_213 gnd vdd FILL
XFILL_4_AOI22X1_108 gnd vdd FILL
XFILL_22_DFFSR_224 gnd vdd FILL
XFILL_3_AOI22X1_9 gnd vdd FILL
XFILL_4_AOI22X1_119 gnd vdd FILL
XFILL_14_DFFSR_503 gnd vdd FILL
XFILL_22_DFFSR_235 gnd vdd FILL
XFILL_22_DFFSR_246 gnd vdd FILL
XFILL_14_DFFSR_514 gnd vdd FILL
XFILL_22_DFFSR_257 gnd vdd FILL
XFILL_14_DFFSR_525 gnd vdd FILL
XFILL_14_DFFSR_536 gnd vdd FILL
XFILL_22_DFFSR_268 gnd vdd FILL
XFILL_22_DFFSR_279 gnd vdd FILL
XFILL_14_DFFSR_547 gnd vdd FILL
XDFFSR_408 INVX1_554/A DFFSR_423/CLK BUFX4_80/Y vdd DFFSR_408/D gnd vdd DFFSR
XFILL_14_DFFSR_558 gnd vdd FILL
XFILL_26_DFFSR_201 gnd vdd FILL
XFILL_26_DFFSR_212 gnd vdd FILL
XDFFSR_419 INVX1_654/A DFFSR_91/CLK DFFSR_429/R vdd DFFSR_419/D gnd vdd DFFSR
XDFFSR_9 DFFSR_9/Q DFFSR_9/CLK DFFSR_9/R vdd DFFSR_9/D gnd vdd DFFSR
XFILL_5_DFFSR_17 gnd vdd FILL
XFILL_14_DFFSR_569 gnd vdd FILL
XFILL_5_DFFSR_28 gnd vdd FILL
XFILL_26_DFFSR_223 gnd vdd FILL
XFILL_5_DFFSR_39 gnd vdd FILL
XFILL_18_DFFSR_502 gnd vdd FILL
XFILL_26_DFFSR_234 gnd vdd FILL
XFILL_26_DFFSR_245 gnd vdd FILL
XFILL_18_DFFSR_513 gnd vdd FILL
XFILL_1_OAI21X1_1106 gnd vdd FILL
XFILL_26_DFFSR_256 gnd vdd FILL
XFILL_1_OAI21X1_1117 gnd vdd FILL
XOAI21X1_190 INVX2_13/Y INVX4_1/Y OAI21X1_190/C gnd AOI21X1_50/C vdd OAI21X1
XFILL_0_AOI22X1_17 gnd vdd FILL
XFILL_1_OAI21X1_1128 gnd vdd FILL
XFILL_18_DFFSR_524 gnd vdd FILL
XFILL_0_AOI22X1_28 gnd vdd FILL
XFILL_18_DFFSR_535 gnd vdd FILL
XINVX1_210 INVX1_210/A gnd INVX1_210/Y vdd INVX1
XFILL_26_DFFSR_267 gnd vdd FILL
XFILL_18_DFFSR_546 gnd vdd FILL
XINVX1_221 DFFSR_6/D gnd INVX1_221/Y vdd INVX1
XFILL_1_OAI21X1_1139 gnd vdd FILL
XFILL_26_DFFSR_278 gnd vdd FILL
XFILL_18_DFFSR_557 gnd vdd FILL
XFILL_0_AOI22X1_39 gnd vdd FILL
XFILL_18_DFFSR_568 gnd vdd FILL
XINVX1_232 INVX1_232/A gnd INVX1_232/Y vdd INVX1
XINVX1_243 DFFSR_38/Q gnd INVX1_243/Y vdd INVX1
XFILL_2_DFFSR_750 gnd vdd FILL
XFILL_4_AOI21X1_19 gnd vdd FILL
XFILL_2_DFFSR_761 gnd vdd FILL
XFILL_18_DFFSR_579 gnd vdd FILL
XINVX1_254 DFFSR_46/Q gnd INVX1_254/Y vdd INVX1
XFILL_2_DFFSR_772 gnd vdd FILL
XINVX1_265 DFFSR_51/Q gnd NOR3X1_6/B vdd INVX1
XINVX1_276 INVX1_276/A gnd INVX1_276/Y vdd INVX1
XFILL_2_DFFSR_783 gnd vdd FILL
XINVX1_287 INVX1_287/A gnd INVX1_287/Y vdd INVX1
XINVX1_298 pwdata[4] gnd INVX1_298/Y vdd INVX1
XFILL_3_BUFX4_506 gnd vdd FILL
XFILL_3_BUFX4_517 gnd vdd FILL
XFILL_6_DFFSR_760 gnd vdd FILL
XFILL_3_BUFX4_528 gnd vdd FILL
XFILL_3_BUFX4_539 gnd vdd FILL
XFILL_6_DFFSR_771 gnd vdd FILL
XFILL_17_10_0 gnd vdd FILL
XNAND2X1_10 reg_wdata[16] BUFX4_352/Y gnd OAI21X1_10/C vdd NAND2X1
XFILL_6_DFFSR_782 gnd vdd FILL
XNAND2X1_21 reg_wdata[27] OAI21X1_9/B gnd OAI21X1_21/C vdd NAND2X1
XNAND2X1_32 reg_wdata[7] BUFX4_368/Y gnd OAI21X1_32/C vdd NAND2X1
XNAND2X1_43 reg_wdata[18] BUFX4_367/Y gnd OAI21X1_43/C vdd NAND2X1
XFILL_4_OAI21X1_220 gnd vdd FILL
XFILL_0_DFFSR_104 gnd vdd FILL
XNAND2X1_54 reg_wdata[29] BUFX4_369/Y gnd OAI21X1_54/C vdd NAND2X1
XFILL_4_OAI21X1_231 gnd vdd FILL
XFILL_0_DFFSR_115 gnd vdd FILL
XNAND2X1_65 reg_wdata[9] BUFX4_237/Y gnd OAI21X1_65/C vdd NAND2X1
XBUFX4_530 BUFX4_532/A gnd BUFX4_530/Y vdd BUFX4
XFILL_0_DFFSR_126 gnd vdd FILL
XFILL_4_OAI21X1_242 gnd vdd FILL
XFILL_65_7_1 gnd vdd FILL
XNAND2X1_76 reg_wdata[20] BUFX4_232/Y gnd OAI21X1_76/C vdd NAND2X1
XFILL_4_OAI21X1_253 gnd vdd FILL
XNAND2X1_87 reg_wdata[0] BUFX4_428/Y gnd OAI21X1_87/C vdd NAND2X1
XBUFX4_541 INVX8_3/Y gnd BUFX4_541/Y vdd BUFX4
XFILL_0_DFFSR_137 gnd vdd FILL
XFILL_4_OAI21X1_264 gnd vdd FILL
XBUFX4_552 BUFX2_9/A gnd BUFX4_552/Y vdd BUFX4
XFILL_0_DFFSR_148 gnd vdd FILL
XNAND2X1_98 NOR2X1_22/Y AOI21X1_8/Y gnd NOR2X1_21/B vdd NAND2X1
XFILL_64_2_0 gnd vdd FILL
XFILL_0_AOI22X1_308 gnd vdd FILL
XFILL_0_DFFSR_159 gnd vdd FILL
XFILL_4_OAI21X1_275 gnd vdd FILL
XBUFX4_563 BUFX4_563/A gnd BUFX4_563/Y vdd BUFX4
XBUFX4_574 INVX8_15/Y gnd MUX2X1_22/S vdd BUFX4
XFILL_4_OAI21X1_286 gnd vdd FILL
XFILL_42_2 gnd vdd FILL
XFILL_0_AOI22X1_319 gnd vdd FILL
XFILL_4_OAI21X1_297 gnd vdd FILL
XFILL_1_NAND2X1_107 gnd vdd FILL
XFILL_1_NAND2X1_118 gnd vdd FILL
XFILL_4_DFFSR_103 gnd vdd FILL
XFILL_1_NAND2X1_129 gnd vdd FILL
XFILL_4_DFFSR_114 gnd vdd FILL
XFILL_35_1 gnd vdd FILL
XFILL_4_DFFSR_125 gnd vdd FILL
XFILL_4_DFFSR_136 gnd vdd FILL
XFILL_4_DFFSR_147 gnd vdd FILL
XFILL_4_DFFSR_158 gnd vdd FILL
XFILL_4_DFFSR_169 gnd vdd FILL
XFILL_8_DFFSR_102 gnd vdd FILL
XFILL_6_XOR2X1_1 gnd vdd FILL
XAOI21X1_203 OAI21X1_769/Y BUFX2_2/Y NAND2X1_398/Y gnd NAND3X1_85/B vdd AOI21X1
XFILL_8_DFFSR_113 gnd vdd FILL
XAOI21X1_214 AND2X2_64/Y INVX4_4/Y OAI21X1_811/Y gnd NAND3X1_89/B vdd AOI21X1
XFILL_8_DFFSR_124 gnd vdd FILL
XAOI21X1_225 NOR2X1_213/Y XOR2X1_1/B BUFX2_8/Y gnd OAI21X1_863/C vdd AOI21X1
XFILL_8_DFFSR_135 gnd vdd FILL
XFILL_3_CLKBUF1_105 gnd vdd FILL
XFILL_8_DFFSR_146 gnd vdd FILL
XAOI21X1_236 INVX1_381/Y MUX2X1_5/S NOR2X1_229/Y gnd OAI21X1_968/B vdd AOI21X1
XAOI21X1_247 OAI21X1_711/C OAI21X1_689/A INVX1_462/Y gnd INVX1_333/A vdd AOI21X1
XFILL_8_DFFSR_157 gnd vdd FILL
XFILL_4_OAI22X1_16 gnd vdd FILL
XAOI21X1_258 BUFX4_311/Y INVX1_648/A BUFX4_402/Y gnd NAND3X1_134/B vdd AOI21X1
XFILL_8_DFFSR_168 gnd vdd FILL
XFILL_4_OAI22X1_27 gnd vdd FILL
XFILL_8_DFFSR_179 gnd vdd FILL
XAOI21X1_269 INVX1_566/A NOR3X1_15/Y INVX1_449/Y gnd NAND3X1_143/C vdd AOI21X1
XFILL_22_DFFSR_780 gnd vdd FILL
XFILL_0_NOR3X1_15 gnd vdd FILL
XFILL_4_OAI22X1_38 gnd vdd FILL
XAOI22X1_30 INVX1_117/Y sensor2_data[9] OR2X2_11/A sensor2_data[8] gnd INVX1_102/A
+ vdd AOI22X1
XFILL_4_OAI22X1_49 gnd vdd FILL
XAOI22X1_41 INVX1_208/Y sensor2_data[29] sensor2_data[28] INVX2_32/Y gnd AOI22X1_41/Y
+ vdd AOI22X1
XAOI22X1_52 BUFX4_491/Y sensor0_data[2] INVX1_66/A OR2X2_16/B gnd AOI22X1_52/Y vdd
+ AOI22X1
XAOI22X1_63 INVX8_1/Y INVX1_799/A INVX1_3/A BUFX4_357/Y gnd AOI22X1_63/Y vdd AOI22X1
XOAI21X1_1420 OAI22X1_202/Y OAI21X1_1421/Y INVX8_30/A gnd NAND2X1_797/A vdd OAI21X1
XAOI22X1_74 INVX1_6/A BUFX4_356/Y INVX1_45/A BUFX4_542/Y gnd NAND3X1_27/B vdd AOI22X1
XOAI21X1_1431 INVX1_704/Y INVX8_29/A AOI22X1_292/Y gnd OR2X2_56/A vdd OAI21X1
XAOI22X1_85 BUFX4_413/Y INVX1_792/A sensor2_data[18] INVX4_2/Y gnd AOI22X1_85/Y vdd
+ AOI22X1
XFILL_6_MUX2X1_2 gnd vdd FILL
XFILL_0_BUFX4_270 gnd vdd FILL
XOAI21X1_1442 OAI21X1_1444/Y NAND3X1_181/Y AND2X2_95/Y gnd AOI21X1_309/A vdd OAI21X1
XAOI22X1_96 sensor0_data[23] BUFX4_491/Y sensor2_data[23] NOR2X1_87/Y gnd AOI22X1_96/Y
+ vdd AOI22X1
XFILL_0_BUFX4_281 gnd vdd FILL
XOAI21X1_1453 INVX1_723/Y INVX8_29/A AOI22X1_313/Y gnd OR2X2_58/B vdd OAI21X1
XOAI21X1_1464 INVX1_734/Y BUFX4_460/Y NAND2X1_818/Y gnd NOR2X1_412/A vdd OAI21X1
XFILL_0_BUFX4_292 gnd vdd FILL
XFILL_4_NOR3X1_14 gnd vdd FILL
XOAI21X1_1475 INVX1_746/Y BUFX4_305/Y AOI22X1_339/Y gnd NOR2X1_415/B vdd OAI21X1
XFILL_2_INVX2_33 gnd vdd FILL
XFILL_3_NAND3X1_70 gnd vdd FILL
XOAI21X1_1486 INVX1_754/Y BUFX4_305/Y NAND2X1_832/Y gnd NOR2X1_418/A vdd OAI21X1
XFILL_3_NAND3X1_81 gnd vdd FILL
XFILL_2_INVX2_44 gnd vdd FILL
XFILL_3_NAND3X1_92 gnd vdd FILL
XFILL_9_DFFSR_3 gnd vdd FILL
XOAI21X1_1497 OAI21X1_1499/Y OAI21X1_1498/Y INVX8_30/A gnd NAND2X1_838/B vdd OAI21X1
XFILL_0_OAI21X1_420 gnd vdd FILL
XFILL_20_DFFSR_101 gnd vdd FILL
XFILL_1_OAI21X1_602 gnd vdd FILL
XFILL_0_OAI21X1_431 gnd vdd FILL
XFILL_20_DFFSR_112 gnd vdd FILL
XFILL_1_OAI21X1_613 gnd vdd FILL
XFILL_1_NOR2X1_207 gnd vdd FILL
XFILL_0_OAI21X1_442 gnd vdd FILL
XFILL_20_DFFSR_123 gnd vdd FILL