* XSpice netlist created from SPICE and liberty sources by spi2xspice.py
*SPICE netlist created from BLIF module vega_top by blif2BSpice
.subckt vega_top a_vdd a_gnd a_clk a_rst_n a_ext_wakeup_in a_rtc_wakeup_in a_irq_wakeup_in a_ext_wakeup_en a_rtc_wakeup_en a_irq_wakeup_en a_thermal_alert a_battery_low a_fault_in a_psel a_penable a_pwrite a_paddr_0_ a_paddr_1_ a_paddr_2_ a_paddr_3_ a_paddr_4_ a_paddr_5_ a_paddr_6_ a_paddr_7_ a_pwdata_0_ a_pwdata_1_ a_pwdata_2_ a_pwdata_3_ a_pwdata_4_ a_pwdata_5_ a_pwdata_6_ a_pwdata_7_ a_pwdata_8_ a_pwdata_9_ a_pwdata_10_ a_pwdata_11_ a_pwdata_12_ a_pwdata_13_ a_pwdata_14_ a_pwdata_15_ a_pwdata_16_ a_pwdata_17_ a_pwdata_18_ a_pwdata_19_ a_pwdata_20_ a_pwdata_21_ a_pwdata_22_ a_pwdata_23_ a_pwdata_24_ a_pwdata_25_ a_pwdata_26_ a_pwdata_27_ a_pwdata_28_ a_pwdata_29_ a_pwdata_30_ a_pwdata_31_ a_reg_wr_en a_reg_rd_en a_reg_addr_0_ a_reg_addr_1_ a_reg_addr_2_ a_reg_addr_3_ a_reg_addr_4_ a_reg_addr_5_ a_reg_addr_6_ a_reg_addr_7_ a_reg_wdata_0_ a_reg_wdata_1_ a_reg_wdata_2_ a_reg_wdata_3_ a_reg_wdata_4_ a_reg_wdata_5_ a_reg_wdata_6_ a_reg_wdata_7_ a_reg_wdata_8_ a_reg_wdata_9_ a_reg_wdata_10_ a_reg_wdata_11_ a_reg_wdata_12_ a_reg_wdata_13_ a_reg_wdata_14_ a_reg_wdata_15_ a_reg_wdata_16_ a_reg_wdata_17_ a_reg_wdata_18_ a_reg_wdata_19_ a_reg_wdata_20_ a_reg_wdata_21_ a_reg_wdata_22_ a_reg_wdata_23_ a_reg_wdata_24_ a_reg_wdata_25_ a_reg_wdata_26_ a_reg_wdata_27_ a_reg_wdata_28_ a_reg_wdata_29_ a_reg_wdata_30_ a_reg_wdata_31_ a_sensor0_data_0_ a_sensor0_data_1_ a_sensor0_data_2_ a_sensor0_data_3_ a_sensor0_data_4_ a_sensor0_data_5_ a_sensor0_data_6_ a_sensor0_data_7_ a_sensor0_data_8_ a_sensor0_data_9_ a_sensor0_data_10_ a_sensor0_data_11_ a_sensor0_data_12_ a_sensor0_data_13_ a_sensor0_data_14_ a_sensor0_data_15_ a_sensor0_data_16_ a_sensor0_data_17_ a_sensor0_data_18_ a_sensor0_data_19_ a_sensor0_data_20_ a_sensor0_data_21_ a_sensor0_data_22_ a_sensor0_data_23_ a_sensor0_data_24_ a_sensor0_data_25_ a_sensor0_data_26_ a_sensor0_data_27_ a_sensor0_data_28_ a_sensor0_data_29_ a_sensor0_data_30_ a_sensor0_data_31_ a_sensor1_data_0_ a_sensor1_data_1_ a_sensor1_data_2_ a_sensor1_data_3_ a_sensor1_data_4_ a_sensor1_data_5_ a_sensor1_data_6_ a_sensor1_data_7_ a_sensor1_data_8_ a_sensor1_data_9_ a_sensor1_data_10_ a_sensor1_data_11_ a_sensor1_data_12_ a_sensor1_data_13_ a_sensor1_data_14_ a_sensor1_data_15_ a_sensor1_data_16_ a_sensor1_data_17_ a_sensor1_data_18_ a_sensor1_data_19_ a_sensor1_data_20_ a_sensor1_data_21_ a_sensor1_data_22_ a_sensor1_data_23_ a_sensor1_data_24_ a_sensor1_data_25_ a_sensor1_data_26_ a_sensor1_data_27_ a_sensor1_data_28_ a_sensor1_data_29_ a_sensor1_data_30_ a_sensor1_data_31_ a_sensor2_data_0_ a_sensor2_data_1_ a_sensor2_data_2_ a_sensor2_data_3_ a_sensor2_data_4_ a_sensor2_data_5_ a_sensor2_data_6_ a_sensor2_data_7_ a_sensor2_data_8_ a_sensor2_data_9_ a_sensor2_data_10_ a_sensor2_data_11_ a_sensor2_data_12_ a_sensor2_data_13_ a_sensor2_data_14_ a_sensor2_data_15_ a_sensor2_data_16_ a_sensor2_data_17_ a_sensor2_data_18_ a_sensor2_data_19_ a_sensor2_data_20_ a_sensor2_data_21_ a_sensor2_data_22_ a_sensor2_data_23_ a_sensor2_data_24_ a_sensor2_data_25_ a_sensor2_data_26_ a_sensor2_data_27_ a_sensor2_data_28_ a_sensor2_data_29_ a_sensor2_data_30_ a_sensor2_data_31_ a_prdata_0_ a_prdata_1_ a_prdata_2_ a_prdata_3_ a_prdata_4_ a_prdata_5_ a_prdata_6_ a_prdata_7_ a_prdata_8_ a_prdata_9_ a_prdata_10_ a_prdata_11_ a_prdata_12_ a_prdata_13_ a_prdata_14_ a_prdata_15_ a_prdata_16_ a_prdata_17_ a_prdata_18_ a_prdata_19_ a_prdata_20_ a_prdata_21_ a_prdata_22_ a_prdata_23_ a_prdata_24_ a_prdata_25_ a_prdata_26_ a_prdata_27_ a_prdata_28_ a_prdata_29_ a_prdata_30_ a_prdata_31_ a_pready a_pslverr a_reg_rdata_0_ a_reg_rdata_1_ a_reg_rdata_2_ a_reg_rdata_3_ a_reg_rdata_4_ a_reg_rdata_5_ a_reg_rdata_6_ a_reg_rdata_7_ a_reg_rdata_8_ a_reg_rdata_9_ a_reg_rdata_10_ a_reg_rdata_11_ a_reg_rdata_12_ a_reg_rdata_13_ a_reg_rdata_14_ a_reg_rdata_15_ a_reg_rdata_16_ a_reg_rdata_17_ a_reg_rdata_18_ a_reg_rdata_19_ a_reg_rdata_20_ a_reg_rdata_21_ a_reg_rdata_22_ a_reg_rdata_23_ a_reg_rdata_24_ a_reg_rdata_25_ a_reg_rdata_26_ a_reg_rdata_27_ a_reg_rdata_28_ a_reg_rdata_29_ a_reg_rdata_30_ a_reg_rdata_31_ a_reg_ack a_pmu_active a_pmu_sleeping a_pmu_fault a_pmu_state_out_0_ a_pmu_state_out_1_ a_pmu_state_out_2_ a_pmu_state_out_3_ a_irq_out a_wakeup_src_status_0_ a_wakeup_src_status_1_ a_wakeup_src_status_2_
ABUFX4_1 [rst_n] rst_n_hier0_bF$buf8 d_lut_BUFX4
ABUFX4_2 [rst_n] rst_n_hier0_bF$buf7 d_lut_BUFX4
ABUFX4_3 [rst_n] rst_n_hier0_bF$buf6 d_lut_BUFX4
ABUFX4_4 [rst_n] rst_n_hier0_bF$buf5 d_lut_BUFX4
ABUFX4_5 [rst_n] rst_n_hier0_bF$buf4 d_lut_BUFX4
ABUFX4_6 [rst_n] rst_n_hier0_bF$buf3 d_lut_BUFX4
ABUFX4_7 [rst_n] rst_n_hier0_bF$buf2 d_lut_BUFX4
ABUFX4_8 [rst_n] rst_n_hier0_bF$buf1 d_lut_BUFX4
ABUFX4_9 [rst_n] rst_n_hier0_bF$buf0 d_lut_BUFX4
ABUFX4_10 [clk] clk_hier0_bF$buf5 d_lut_BUFX4
ABUFX4_11 [clk] clk_hier0_bF$buf4 d_lut_BUFX4
ABUFX4_12 [clk] clk_hier0_bF$buf3 d_lut_BUFX4
ABUFX4_13 [clk] clk_hier0_bF$buf2 d_lut_BUFX4
ABUFX4_14 [clk] clk_hier0_bF$buf1 d_lut_BUFX4
ABUFX4_15 [clk] clk_hier0_bF$buf0 d_lut_BUFX4
ABUFX4_16 [clk_proc] clk_proc_hier0_bF$buf6 d_lut_BUFX4
ABUFX4_17 [clk_proc] clk_proc_hier0_bF$buf5 d_lut_BUFX4
ABUFX4_18 [clk_proc] clk_proc_hier0_bF$buf4 d_lut_BUFX4
ABUFX4_19 [clk_proc] clk_proc_hier0_bF$buf3 d_lut_BUFX4
ABUFX4_20 [clk_proc] clk_proc_hier0_bF$buf2 d_lut_BUFX4
ABUFX4_21 [clk_proc] clk_proc_hier0_bF$buf1 d_lut_BUFX4
ABUFX4_22 [clk_proc] clk_proc_hier0_bF$buf0 d_lut_BUFX4
ABUFX4_23 [u_data_processor.ctrl_reg_1_] u_data_processor.ctrl_reg_1_bF$buf8_ d_lut_BUFX4
ABUFX4_24 [u_data_processor.ctrl_reg_1_] u_data_processor.ctrl_reg_1_bF$buf7_ d_lut_BUFX4
ABUFX4_25 [u_data_processor.ctrl_reg_1_] u_data_processor.ctrl_reg_1_bF$buf6_ d_lut_BUFX4
ABUFX4_26 [u_data_processor.ctrl_reg_1_] u_data_processor.ctrl_reg_1_bF$buf5_ d_lut_BUFX4
ABUFX4_27 [u_data_processor.ctrl_reg_1_] u_data_processor.ctrl_reg_1_bF$buf4_ d_lut_BUFX4
ABUFX4_28 [u_data_processor.ctrl_reg_1_] u_data_processor.ctrl_reg_1_bF$buf3_ d_lut_BUFX4
ABUFX4_29 [u_data_processor.ctrl_reg_1_] u_data_processor.ctrl_reg_1_bF$buf2_ d_lut_BUFX4
ABUFX4_30 [u_data_processor.ctrl_reg_1_] u_data_processor.ctrl_reg_1_bF$buf1_ d_lut_BUFX4
ABUFX4_31 [u_data_processor.ctrl_reg_1_] u_data_processor.ctrl_reg_1_bF$buf0_ d_lut_BUFX4
ABUFX4_32 [_2271_] _2271__bF$buf4 d_lut_BUFX4
ABUFX4_33 [_2271_] _2271__bF$buf3 d_lut_BUFX4
ABUFX4_34 [_2271_] _2271__bF$buf2 d_lut_BUFX4
ABUFX4_35 [_2271_] _2271__bF$buf1 d_lut_BUFX4
ABUFX4_36 [_2271_] _2271__bF$buf0 d_lut_BUFX4
ABUFX4_37 [_4511_] _4511__bF$buf3 d_lut_BUFX4
ABUFX4_38 [_4511_] _4511__bF$buf2 d_lut_BUFX4
ABUFX4_39 [_4511_] _4511__bF$buf1 d_lut_BUFX4
ABUFX4_40 [_4511_] _4511__bF$buf0 d_lut_BUFX4
ABUFX4_41 [_585_] _585__bF$buf4 d_lut_BUFX4
ABUFX4_42 [_585_] _585__bF$buf3 d_lut_BUFX4
ABUFX4_43 [_585_] _585__bF$buf2 d_lut_BUFX4
ABUFX4_44 [_585_] _585__bF$buf1 d_lut_BUFX4
ABUFX4_45 [_585_] _585__bF$buf0 d_lut_BUFX4
ABUFX4_46 [_2497_] _2497__bF$buf5 d_lut_BUFX4
ABUFX4_47 [_2497_] _2497__bF$buf4 d_lut_BUFX4
ABUFX4_48 [_2497_] _2497__bF$buf3 d_lut_BUFX4
ABUFX4_49 [_2497_] _2497__bF$buf2 d_lut_BUFX4
ABUFX4_50 [_2497_] _2497__bF$buf1 d_lut_BUFX4
ABUFX4_51 [_2497_] _2497__bF$buf0 d_lut_BUFX4
ABUFX4_52 [_4546_] _4546__bF$buf3 d_lut_BUFX4
ABUFX4_53 [_4546_] _4546__bF$buf2 d_lut_BUFX4
ABUFX4_54 [_4546_] _4546__bF$buf1 d_lut_BUFX4
ABUFX4_55 [_4546_] _4546__bF$buf0 d_lut_BUFX4
ABUFX4_56 [_603_] _603__bF$buf3 d_lut_BUFX4
ABUFX4_57 [_603_] _603__bF$buf2 d_lut_BUFX4
ABUFX4_58 [_603_] _603__bF$buf1 d_lut_BUFX4
ABUFX2_1 [_603_] _603__bF$buf0 d_lut_BUFX2
ABUFX4_59 [rst_n_hier0_bF$buf8] rst_n_bF$buf84 d_lut_BUFX4
ABUFX4_60 [rst_n_hier0_bF$buf7] rst_n_bF$buf83 d_lut_BUFX4
ABUFX4_61 [rst_n_hier0_bF$buf6] rst_n_bF$buf82 d_lut_BUFX4
ABUFX4_62 [rst_n_hier0_bF$buf5] rst_n_bF$buf81 d_lut_BUFX4
ABUFX4_63 [rst_n_hier0_bF$buf4] rst_n_bF$buf80 d_lut_BUFX4
ABUFX4_64 [rst_n_hier0_bF$buf3] rst_n_bF$buf79 d_lut_BUFX4
ABUFX4_65 [rst_n_hier0_bF$buf2] rst_n_bF$buf78 d_lut_BUFX4
ABUFX4_66 [rst_n_hier0_bF$buf1] rst_n_bF$buf77 d_lut_BUFX4
ABUFX4_67 [rst_n_hier0_bF$buf0] rst_n_bF$buf76 d_lut_BUFX4
ABUFX4_68 [rst_n_hier0_bF$buf8] rst_n_bF$buf75 d_lut_BUFX4
ABUFX4_69 [rst_n_hier0_bF$buf7] rst_n_bF$buf74 d_lut_BUFX4
ABUFX4_70 [rst_n_hier0_bF$buf6] rst_n_bF$buf73 d_lut_BUFX4
ABUFX4_71 [rst_n_hier0_bF$buf5] rst_n_bF$buf72 d_lut_BUFX4
ABUFX4_72 [rst_n_hier0_bF$buf4] rst_n_bF$buf71 d_lut_BUFX4
ABUFX4_73 [rst_n_hier0_bF$buf3] rst_n_bF$buf70 d_lut_BUFX4
ABUFX4_74 [rst_n_hier0_bF$buf2] rst_n_bF$buf69 d_lut_BUFX4
ABUFX4_75 [rst_n_hier0_bF$buf1] rst_n_bF$buf68 d_lut_BUFX4
ABUFX4_76 [rst_n_hier0_bF$buf0] rst_n_bF$buf67 d_lut_BUFX4
ABUFX4_77 [rst_n_hier0_bF$buf8] rst_n_bF$buf66 d_lut_BUFX4
ABUFX4_78 [rst_n_hier0_bF$buf7] rst_n_bF$buf65 d_lut_BUFX4
ABUFX4_79 [rst_n_hier0_bF$buf6] rst_n_bF$buf64 d_lut_BUFX4
ABUFX4_80 [rst_n_hier0_bF$buf5] rst_n_bF$buf63 d_lut_BUFX4
ABUFX4_81 [rst_n_hier0_bF$buf4] rst_n_bF$buf62 d_lut_BUFX4
ABUFX4_82 [rst_n_hier0_bF$buf3] rst_n_bF$buf61 d_lut_BUFX4
ABUFX4_83 [rst_n_hier0_bF$buf2] rst_n_bF$buf60 d_lut_BUFX4
ABUFX4_84 [rst_n_hier0_bF$buf1] rst_n_bF$buf59 d_lut_BUFX4
ABUFX4_85 [rst_n_hier0_bF$buf0] rst_n_bF$buf58 d_lut_BUFX4
ABUFX4_86 [rst_n_hier0_bF$buf8] rst_n_bF$buf57 d_lut_BUFX4
ABUFX4_87 [rst_n_hier0_bF$buf7] rst_n_bF$buf56 d_lut_BUFX4
ABUFX4_88 [rst_n_hier0_bF$buf6] rst_n_bF$buf55 d_lut_BUFX4
ABUFX4_89 [rst_n_hier0_bF$buf5] rst_n_bF$buf54 d_lut_BUFX4
ABUFX4_90 [rst_n_hier0_bF$buf4] rst_n_bF$buf53 d_lut_BUFX4
ABUFX4_91 [rst_n_hier0_bF$buf3] rst_n_bF$buf52 d_lut_BUFX4
ABUFX4_92 [rst_n_hier0_bF$buf2] rst_n_bF$buf51 d_lut_BUFX4
ABUFX4_93 [rst_n_hier0_bF$buf1] rst_n_bF$buf50 d_lut_BUFX4
ABUFX4_94 [rst_n_hier0_bF$buf0] rst_n_bF$buf49 d_lut_BUFX4
ABUFX4_95 [rst_n_hier0_bF$buf8] rst_n_bF$buf48 d_lut_BUFX4
ABUFX4_96 [rst_n_hier0_bF$buf7] rst_n_bF$buf47 d_lut_BUFX4
ABUFX4_97 [rst_n_hier0_bF$buf6] rst_n_bF$buf46 d_lut_BUFX4
ABUFX4_98 [rst_n_hier0_bF$buf5] rst_n_bF$buf45 d_lut_BUFX4
ABUFX4_99 [rst_n_hier0_bF$buf4] rst_n_bF$buf44 d_lut_BUFX4
ABUFX4_100 [rst_n_hier0_bF$buf3] rst_n_bF$buf43 d_lut_BUFX4
ABUFX4_101 [rst_n_hier0_bF$buf2] rst_n_bF$buf42 d_lut_BUFX4
ABUFX4_102 [rst_n_hier0_bF$buf1] rst_n_bF$buf41 d_lut_BUFX4
ABUFX4_103 [rst_n_hier0_bF$buf0] rst_n_bF$buf40 d_lut_BUFX4
ABUFX4_104 [rst_n_hier0_bF$buf8] rst_n_bF$buf39 d_lut_BUFX4
ABUFX4_105 [rst_n_hier0_bF$buf7] rst_n_bF$buf38 d_lut_BUFX4
ABUFX4_106 [rst_n_hier0_bF$buf6] rst_n_bF$buf37 d_lut_BUFX4
ABUFX4_107 [rst_n_hier0_bF$buf5] rst_n_bF$buf36 d_lut_BUFX4
ABUFX4_108 [rst_n_hier0_bF$buf4] rst_n_bF$buf35 d_lut_BUFX4
ABUFX4_109 [rst_n_hier0_bF$buf3] rst_n_bF$buf34 d_lut_BUFX4
ABUFX4_110 [rst_n_hier0_bF$buf2] rst_n_bF$buf33 d_lut_BUFX4
ABUFX4_111 [rst_n_hier0_bF$buf1] rst_n_bF$buf32 d_lut_BUFX4
ABUFX4_112 [rst_n_hier0_bF$buf0] rst_n_bF$buf31 d_lut_BUFX4
ABUFX4_113 [rst_n_hier0_bF$buf8] rst_n_bF$buf30 d_lut_BUFX4
ABUFX4_114 [rst_n_hier0_bF$buf7] rst_n_bF$buf29 d_lut_BUFX4
ABUFX4_115 [rst_n_hier0_bF$buf6] rst_n_bF$buf28 d_lut_BUFX4
ABUFX4_116 [rst_n_hier0_bF$buf5] rst_n_bF$buf27 d_lut_BUFX4
ABUFX4_117 [rst_n_hier0_bF$buf4] rst_n_bF$buf26 d_lut_BUFX4
ABUFX4_118 [rst_n_hier0_bF$buf3] rst_n_bF$buf25 d_lut_BUFX4
ABUFX4_119 [rst_n_hier0_bF$buf2] rst_n_bF$buf24 d_lut_BUFX4
ABUFX4_120 [rst_n_hier0_bF$buf1] rst_n_bF$buf23 d_lut_BUFX4
ABUFX4_121 [rst_n_hier0_bF$buf0] rst_n_bF$buf22 d_lut_BUFX4
ABUFX4_122 [rst_n_hier0_bF$buf8] rst_n_bF$buf21 d_lut_BUFX4
ABUFX4_123 [rst_n_hier0_bF$buf7] rst_n_bF$buf20 d_lut_BUFX4
ABUFX4_124 [rst_n_hier0_bF$buf6] rst_n_bF$buf19 d_lut_BUFX4
ABUFX4_125 [rst_n_hier0_bF$buf5] rst_n_bF$buf18 d_lut_BUFX4
ABUFX4_126 [rst_n_hier0_bF$buf4] rst_n_bF$buf17 d_lut_BUFX4
ABUFX4_127 [rst_n_hier0_bF$buf3] rst_n_bF$buf16 d_lut_BUFX4
ABUFX4_128 [rst_n_hier0_bF$buf2] rst_n_bF$buf15 d_lut_BUFX4
ABUFX4_129 [rst_n_hier0_bF$buf1] rst_n_bF$buf14 d_lut_BUFX4
ABUFX4_130 [rst_n_hier0_bF$buf0] rst_n_bF$buf13 d_lut_BUFX4
ABUFX4_131 [rst_n_hier0_bF$buf8] rst_n_bF$buf12 d_lut_BUFX4
ABUFX4_132 [rst_n_hier0_bF$buf7] rst_n_bF$buf11 d_lut_BUFX4
ABUFX4_133 [rst_n_hier0_bF$buf6] rst_n_bF$buf10 d_lut_BUFX4
ABUFX4_134 [rst_n_hier0_bF$buf5] rst_n_bF$buf9 d_lut_BUFX4
ABUFX4_135 [rst_n_hier0_bF$buf4] rst_n_bF$buf8 d_lut_BUFX4
ABUFX4_136 [rst_n_hier0_bF$buf3] rst_n_bF$buf7 d_lut_BUFX4
ABUFX4_137 [rst_n_hier0_bF$buf2] rst_n_bF$buf6 d_lut_BUFX4
ABUFX4_138 [rst_n_hier0_bF$buf1] rst_n_bF$buf5 d_lut_BUFX4
ABUFX4_139 [rst_n_hier0_bF$buf0] rst_n_bF$buf4 d_lut_BUFX4
ABUFX4_140 [rst_n_hier0_bF$buf8] rst_n_bF$buf3 d_lut_BUFX4
ABUFX4_141 [rst_n_hier0_bF$buf7] rst_n_bF$buf2 d_lut_BUFX4
ABUFX4_142 [rst_n_hier0_bF$buf6] rst_n_bF$buf1 d_lut_BUFX4
ABUFX4_143 [rst_n_hier0_bF$buf5] rst_n_bF$buf0 d_lut_BUFX4
ABUFX4_144 [_4505_] _4505__bF$buf3 d_lut_BUFX4
ABUFX4_145 [_4505_] _4505__bF$buf2 d_lut_BUFX4
ABUFX4_146 [_4505_] _4505__bF$buf1 d_lut_BUFX4
ABUFX4_147 [_4505_] _4505__bF$buf0 d_lut_BUFX4
ABUFX4_148 [_4026_] _4026__bF$buf3 d_lut_BUFX4
ABUFX4_149 [_4026_] _4026__bF$buf2 d_lut_BUFX4
ABUFX4_150 [_4026_] _4026__bF$buf1 d_lut_BUFX4
ABUFX4_151 [_4026_] _4026__bF$buf0 d_lut_BUFX4
ABUFX4_152 [_1210_] _1210__bF$buf3 d_lut_BUFX4
ABUFX4_153 [_1210_] _1210__bF$buf2 d_lut_BUFX4
ABUFX4_154 [_1210_] _1210__bF$buf1 d_lut_BUFX4
ABUFX4_155 [_1210_] _1210__bF$buf0 d_lut_BUFX4
ABUFX4_156 [_4389__0_] _4389__0_bF$buf5_ d_lut_BUFX4
ABUFX4_157 [_4389__0_] _4389__0_bF$buf4_ d_lut_BUFX4
ABUFX4_158 [_4389__0_] _4389__0_bF$buf3_ d_lut_BUFX4
ABUFX4_159 [_4389__0_] _4389__0_bF$buf2_ d_lut_BUFX4
ABUFX4_160 [_4389__0_] _4389__0_bF$buf1_ d_lut_BUFX4
ABUFX4_161 [_4389__0_] _4389__0_bF$buf0_ d_lut_BUFX4
ABUFX4_162 [_2259_] _2259__bF$buf3 d_lut_BUFX4
ABUFX4_163 [_2259_] _2259__bF$buf2 d_lut_BUFX4
ABUFX2_2 [_2259_] _2259__bF$buf1 d_lut_BUFX2
ABUFX2_3 [_2259_] _2259__bF$buf0 d_lut_BUFX2
ABUFX4_164 [_4061_] _4061__bF$buf4 d_lut_BUFX4
ABUFX4_165 [_4061_] _4061__bF$buf3 d_lut_BUFX4
ABUFX4_166 [_4061_] _4061__bF$buf2 d_lut_BUFX4
ABUFX4_167 [_4061_] _4061__bF$buf1 d_lut_BUFX4
ABUFX4_168 [_4061_] _4061__bF$buf0 d_lut_BUFX4
ABUFX4_169 [_573_] _573__bF$buf4 d_lut_BUFX4
ABUFX4_170 [_573_] _573__bF$buf3 d_lut_BUFX4
ABUFX4_171 [_573_] _573__bF$buf2 d_lut_BUFX4
ABUFX4_172 [_573_] _573__bF$buf1 d_lut_BUFX4
ABUFX4_173 [_573_] _573__bF$buf0 d_lut_BUFX4
ABUFX4_174 [_1_] _1__bF$buf7 d_lut_BUFX4
ABUFX4_175 [_1_] _1__bF$buf6 d_lut_BUFX4
ABUFX4_176 [_1_] _1__bF$buf5 d_lut_BUFX4
ABUFX4_177 [_1_] _1__bF$buf4 d_lut_BUFX4
ABUFX4_178 [_1_] _1__bF$buf3 d_lut_BUFX4
ABUFX4_179 [_1_] _1__bF$buf2 d_lut_BUFX4
ABUFX4_180 [_1_] _1__bF$buf1 d_lut_BUFX4
ABUFX4_181 [_1_] _1__bF$buf0 d_lut_BUFX4
ACLKBUF1_1 [clk_hier0_bF$buf5] clk_bF$buf43 d_lut_CLKBUF1
ACLKBUF1_2 [clk_hier0_bF$buf4] clk_bF$buf42 d_lut_CLKBUF1
ACLKBUF1_3 [clk_hier0_bF$buf3] clk_bF$buf41 d_lut_CLKBUF1
ACLKBUF1_4 [clk_hier0_bF$buf2] clk_bF$buf40 d_lut_CLKBUF1
ACLKBUF1_5 [clk_hier0_bF$buf1] clk_bF$buf39 d_lut_CLKBUF1
ACLKBUF1_6 [clk_hier0_bF$buf0] clk_bF$buf38 d_lut_CLKBUF1
ACLKBUF1_7 [clk_hier0_bF$buf5] clk_bF$buf37 d_lut_CLKBUF1
ACLKBUF1_8 [clk_hier0_bF$buf4] clk_bF$buf36 d_lut_CLKBUF1
ACLKBUF1_9 [clk_hier0_bF$buf3] clk_bF$buf35 d_lut_CLKBUF1
ACLKBUF1_10 [clk_hier0_bF$buf2] clk_bF$buf34 d_lut_CLKBUF1
ACLKBUF1_11 [clk_hier0_bF$buf1] clk_bF$buf33 d_lut_CLKBUF1
ACLKBUF1_12 [clk_hier0_bF$buf0] clk_bF$buf32 d_lut_CLKBUF1
ACLKBUF1_13 [clk_hier0_bF$buf5] clk_bF$buf31 d_lut_CLKBUF1
ACLKBUF1_14 [clk_hier0_bF$buf4] clk_bF$buf30 d_lut_CLKBUF1
ACLKBUF1_15 [clk_hier0_bF$buf3] clk_bF$buf29 d_lut_CLKBUF1
ACLKBUF1_16 [clk_hier0_bF$buf2] clk_bF$buf28 d_lut_CLKBUF1
ACLKBUF1_17 [clk_hier0_bF$buf1] clk_bF$buf27 d_lut_CLKBUF1
ACLKBUF1_18 [clk_hier0_bF$buf0] clk_bF$buf26 d_lut_CLKBUF1
ACLKBUF1_19 [clk_hier0_bF$buf5] clk_bF$buf25 d_lut_CLKBUF1
ACLKBUF1_20 [clk_hier0_bF$buf4] clk_bF$buf24 d_lut_CLKBUF1
ACLKBUF1_21 [clk_hier0_bF$buf3] clk_bF$buf23 d_lut_CLKBUF1
ACLKBUF1_22 [clk_hier0_bF$buf2] clk_bF$buf22 d_lut_CLKBUF1
ACLKBUF1_23 [clk_hier0_bF$buf1] clk_bF$buf21 d_lut_CLKBUF1
ACLKBUF1_24 [clk_hier0_bF$buf0] clk_bF$buf20 d_lut_CLKBUF1
ACLKBUF1_25 [clk_hier0_bF$buf5] clk_bF$buf19 d_lut_CLKBUF1
ACLKBUF1_26 [clk_hier0_bF$buf4] clk_bF$buf18 d_lut_CLKBUF1
ACLKBUF1_27 [clk_hier0_bF$buf3] clk_bF$buf17 d_lut_CLKBUF1
ACLKBUF1_28 [clk_hier0_bF$buf2] clk_bF$buf16 d_lut_CLKBUF1
ACLKBUF1_29 [clk_hier0_bF$buf1] clk_bF$buf15 d_lut_CLKBUF1
ACLKBUF1_30 [clk_hier0_bF$buf0] clk_bF$buf14 d_lut_CLKBUF1
ACLKBUF1_31 [clk_hier0_bF$buf5] clk_bF$buf13 d_lut_CLKBUF1
ACLKBUF1_32 [clk_hier0_bF$buf4] clk_bF$buf12 d_lut_CLKBUF1
ACLKBUF1_33 [clk_hier0_bF$buf3] clk_bF$buf11 d_lut_CLKBUF1
ACLKBUF1_34 [clk_hier0_bF$buf2] clk_bF$buf10 d_lut_CLKBUF1
ACLKBUF1_35 [clk_hier0_bF$buf1] clk_bF$buf9 d_lut_CLKBUF1
ACLKBUF1_36 [clk_hier0_bF$buf0] clk_bF$buf8 d_lut_CLKBUF1
ACLKBUF1_37 [clk_hier0_bF$buf5] clk_bF$buf7 d_lut_CLKBUF1
ACLKBUF1_38 [clk_hier0_bF$buf4] clk_bF$buf6 d_lut_CLKBUF1
ACLKBUF1_39 [clk_hier0_bF$buf3] clk_bF$buf5 d_lut_CLKBUF1
ACLKBUF1_40 [clk_hier0_bF$buf2] clk_bF$buf4 d_lut_CLKBUF1
ACLKBUF1_41 [clk_hier0_bF$buf1] clk_bF$buf3 d_lut_CLKBUF1
ACLKBUF1_42 [clk_hier0_bF$buf0] clk_bF$buf2 d_lut_CLKBUF1
ACLKBUF1_43 [clk_hier0_bF$buf5] clk_bF$buf1 d_lut_CLKBUF1
ACLKBUF1_44 [clk_hier0_bF$buf4] clk_bF$buf0 d_lut_CLKBUF1
ABUFX4_182 [_570_] _570__bF$buf4 d_lut_BUFX4
ABUFX4_183 [_570_] _570__bF$buf3 d_lut_BUFX4
ABUFX4_184 [_570_] _570__bF$buf2 d_lut_BUFX4
ABUFX4_185 [_570_] _570__bF$buf1 d_lut_BUFX4
ABUFX4_186 [_570_] _570__bF$buf0 d_lut_BUFX4
ABUFX4_187 [_2576_] _2576__bF$buf3 d_lut_BUFX4
ABUFX4_188 [_2576_] _2576__bF$buf2 d_lut_BUFX4
ABUFX4_189 [_2576_] _2576__bF$buf1 d_lut_BUFX4
ABUFX4_190 [_2576_] _2576__bF$buf0 d_lut_BUFX4
ABUFX4_191 [_567_] _567__bF$buf4 d_lut_BUFX4
ABUFX4_192 [_567_] _567__bF$buf3 d_lut_BUFX4
ABUFX4_193 [_567_] _567__bF$buf2 d_lut_BUFX4
ABUFX4_194 [_567_] _567__bF$buf1 d_lut_BUFX4
ABUFX2_4 [_567_] _567__bF$buf0 d_lut_BUFX2
ABUFX4_195 [_4757_] _4757__bF$buf7 d_lut_BUFX4
ABUFX4_196 [_4757_] _4757__bF$buf6 d_lut_BUFX4
ABUFX4_197 [_4757_] _4757__bF$buf5 d_lut_BUFX4
ABUFX4_198 [_4757_] _4757__bF$buf4 d_lut_BUFX4
ABUFX4_199 [_4757_] _4757__bF$buf3 d_lut_BUFX4
ABUFX4_200 [_4757_] _4757__bF$buf2 d_lut_BUFX4
ABUFX4_201 [_4757_] _4757__bF$buf1 d_lut_BUFX4
ABUFX4_202 [_4757_] _4757__bF$buf0 d_lut_BUFX4
ABUFX4_203 [_2212_] _2212__bF$buf3 d_lut_BUFX4
ABUFX4_204 [_2212_] _2212__bF$buf2 d_lut_BUFX4
ABUFX4_205 [_2212_] _2212__bF$buf1 d_lut_BUFX4
ABUFX2_5 [_2212_] _2212__bF$buf0 d_lut_BUFX2
ABUFX4_206 [_2209_] _2209__bF$buf4 d_lut_BUFX4
ABUFX4_207 [_2209_] _2209__bF$buf3 d_lut_BUFX4
ABUFX4_208 [_2209_] _2209__bF$buf2 d_lut_BUFX4
ABUFX4_209 [_2209_] _2209__bF$buf1 d_lut_BUFX4
ABUFX4_210 [_2209_] _2209__bF$buf0 d_lut_BUFX4
ABUFX4_211 [_4011_] _4011__bF$buf4 d_lut_BUFX4
ABUFX4_212 [_4011_] _4011__bF$buf3 d_lut_BUFX4
ABUFX4_213 [_4011_] _4011__bF$buf2 d_lut_BUFX4
ABUFX4_214 [_4011_] _4011__bF$buf1 d_lut_BUFX4
ABUFX4_215 [_4011_] _4011__bF$buf0 d_lut_BUFX4
ABUFX4_216 [_599_] _599__bF$buf4 d_lut_BUFX4
ABUFX4_217 [_599_] _599__bF$buf3 d_lut_BUFX4
ABUFX4_218 [_599_] _599__bF$buf2 d_lut_BUFX4
ABUFX4_219 [_599_] _599__bF$buf1 d_lut_BUFX4
ABUFX4_220 [_599_] _599__bF$buf0 d_lut_BUFX4
ABUFX4_221 [_2206_] _2206__bF$buf3 d_lut_BUFX4
ABUFX4_222 [_2206_] _2206__bF$buf2 d_lut_BUFX4
ABUFX4_223 [_2206_] _2206__bF$buf1 d_lut_BUFX4
ABUFX4_224 [_2206_] _2206__bF$buf0 d_lut_BUFX4
ABUFX4_225 [_2376_] _2376__bF$buf6 d_lut_BUFX4
ABUFX4_226 [_2376_] _2376__bF$buf5 d_lut_BUFX4
ABUFX4_227 [_2376_] _2376__bF$buf4 d_lut_BUFX4
ABUFX4_228 [_2376_] _2376__bF$buf3 d_lut_BUFX4
ABUFX4_229 [_2376_] _2376__bF$buf2 d_lut_BUFX4
ABUFX4_230 [_2376_] _2376__bF$buf1 d_lut_BUFX4
ABUFX4_231 [_2376_] _2376__bF$buf0 d_lut_BUFX4
ACLKBUF1_45 [clk_proc_hier0_bF$buf6] clk_proc_bF$buf57 d_lut_CLKBUF1
ACLKBUF1_46 [clk_proc_hier0_bF$buf5] clk_proc_bF$buf56 d_lut_CLKBUF1
ACLKBUF1_47 [clk_proc_hier0_bF$buf4] clk_proc_bF$buf55 d_lut_CLKBUF1
ACLKBUF1_48 [clk_proc_hier0_bF$buf3] clk_proc_bF$buf54 d_lut_CLKBUF1
ACLKBUF1_49 [clk_proc_hier0_bF$buf2] clk_proc_bF$buf53 d_lut_CLKBUF1
ACLKBUF1_50 [clk_proc_hier0_bF$buf1] clk_proc_bF$buf52 d_lut_CLKBUF1
ACLKBUF1_51 [clk_proc_hier0_bF$buf0] clk_proc_bF$buf51 d_lut_CLKBUF1
ACLKBUF1_52 [clk_proc_hier0_bF$buf6] clk_proc_bF$buf50 d_lut_CLKBUF1
ACLKBUF1_53 [clk_proc_hier0_bF$buf5] clk_proc_bF$buf49 d_lut_CLKBUF1
ACLKBUF1_54 [clk_proc_hier0_bF$buf4] clk_proc_bF$buf48 d_lut_CLKBUF1
ACLKBUF1_55 [clk_proc_hier0_bF$buf3] clk_proc_bF$buf47 d_lut_CLKBUF1
ACLKBUF1_56 [clk_proc_hier0_bF$buf2] clk_proc_bF$buf46 d_lut_CLKBUF1
ACLKBUF1_57 [clk_proc_hier0_bF$buf1] clk_proc_bF$buf45 d_lut_CLKBUF1
ACLKBUF1_58 [clk_proc_hier0_bF$buf0] clk_proc_bF$buf44 d_lut_CLKBUF1
ACLKBUF1_59 [clk_proc_hier0_bF$buf6] clk_proc_bF$buf43 d_lut_CLKBUF1
ACLKBUF1_60 [clk_proc_hier0_bF$buf5] clk_proc_bF$buf42 d_lut_CLKBUF1
ACLKBUF1_61 [clk_proc_hier0_bF$buf4] clk_proc_bF$buf41 d_lut_CLKBUF1
ACLKBUF1_62 [clk_proc_hier0_bF$buf3] clk_proc_bF$buf40 d_lut_CLKBUF1
ACLKBUF1_63 [clk_proc_hier0_bF$buf2] clk_proc_bF$buf39 d_lut_CLKBUF1
ACLKBUF1_64 [clk_proc_hier0_bF$buf1] clk_proc_bF$buf38 d_lut_CLKBUF1
ACLKBUF1_65 [clk_proc_hier0_bF$buf0] clk_proc_bF$buf37 d_lut_CLKBUF1
ACLKBUF1_66 [clk_proc_hier0_bF$buf6] clk_proc_bF$buf36 d_lut_CLKBUF1
ACLKBUF1_67 [clk_proc_hier0_bF$buf5] clk_proc_bF$buf35 d_lut_CLKBUF1
ACLKBUF1_68 [clk_proc_hier0_bF$buf4] clk_proc_bF$buf34 d_lut_CLKBUF1
ACLKBUF1_69 [clk_proc_hier0_bF$buf3] clk_proc_bF$buf33 d_lut_CLKBUF1
ACLKBUF1_70 [clk_proc_hier0_bF$buf2] clk_proc_bF$buf32 d_lut_CLKBUF1
ACLKBUF1_71 [clk_proc_hier0_bF$buf1] clk_proc_bF$buf31 d_lut_CLKBUF1
ACLKBUF1_72 [clk_proc_hier0_bF$buf0] clk_proc_bF$buf30 d_lut_CLKBUF1
ACLKBUF1_73 [clk_proc_hier0_bF$buf6] clk_proc_bF$buf29 d_lut_CLKBUF1
ACLKBUF1_74 [clk_proc_hier0_bF$buf5] clk_proc_bF$buf28 d_lut_CLKBUF1
ACLKBUF1_75 [clk_proc_hier0_bF$buf4] clk_proc_bF$buf27 d_lut_CLKBUF1
ACLKBUF1_76 [clk_proc_hier0_bF$buf3] clk_proc_bF$buf26 d_lut_CLKBUF1
ACLKBUF1_77 [clk_proc_hier0_bF$buf2] clk_proc_bF$buf25 d_lut_CLKBUF1
ACLKBUF1_78 [clk_proc_hier0_bF$buf1] clk_proc_bF$buf24 d_lut_CLKBUF1
ACLKBUF1_79 [clk_proc_hier0_bF$buf0] clk_proc_bF$buf23 d_lut_CLKBUF1
ACLKBUF1_80 [clk_proc_hier0_bF$buf6] clk_proc_bF$buf22 d_lut_CLKBUF1
ACLKBUF1_81 [clk_proc_hier0_bF$buf5] clk_proc_bF$buf21 d_lut_CLKBUF1
ACLKBUF1_82 [clk_proc_hier0_bF$buf4] clk_proc_bF$buf20 d_lut_CLKBUF1
ACLKBUF1_83 [clk_proc_hier0_bF$buf3] clk_proc_bF$buf19 d_lut_CLKBUF1
ACLKBUF1_84 [clk_proc_hier0_bF$buf2] clk_proc_bF$buf18 d_lut_CLKBUF1
ACLKBUF1_85 [clk_proc_hier0_bF$buf1] clk_proc_bF$buf17 d_lut_CLKBUF1
ACLKBUF1_86 [clk_proc_hier0_bF$buf0] clk_proc_bF$buf16 d_lut_CLKBUF1
ACLKBUF1_87 [clk_proc_hier0_bF$buf6] clk_proc_bF$buf15 d_lut_CLKBUF1
ACLKBUF1_88 [clk_proc_hier0_bF$buf5] clk_proc_bF$buf14 d_lut_CLKBUF1
ACLKBUF1_89 [clk_proc_hier0_bF$buf4] clk_proc_bF$buf13 d_lut_CLKBUF1
ACLKBUF1_90 [clk_proc_hier0_bF$buf3] clk_proc_bF$buf12 d_lut_CLKBUF1
ACLKBUF1_91 [clk_proc_hier0_bF$buf2] clk_proc_bF$buf11 d_lut_CLKBUF1
ACLKBUF1_92 [clk_proc_hier0_bF$buf1] clk_proc_bF$buf10 d_lut_CLKBUF1
ACLKBUF1_93 [clk_proc_hier0_bF$buf0] clk_proc_bF$buf9 d_lut_CLKBUF1
ACLKBUF1_94 [clk_proc_hier0_bF$buf6] clk_proc_bF$buf8 d_lut_CLKBUF1
ACLKBUF1_95 [clk_proc_hier0_bF$buf5] clk_proc_bF$buf7 d_lut_CLKBUF1
ACLKBUF1_96 [clk_proc_hier0_bF$buf4] clk_proc_bF$buf6 d_lut_CLKBUF1
ACLKBUF1_97 [clk_proc_hier0_bF$buf3] clk_proc_bF$buf5 d_lut_CLKBUF1
ACLKBUF1_98 [clk_proc_hier0_bF$buf2] clk_proc_bF$buf4 d_lut_CLKBUF1
ACLKBUF1_99 [clk_proc_hier0_bF$buf1] clk_proc_bF$buf3 d_lut_CLKBUF1
ACLKBUF1_100 [clk_proc_hier0_bF$buf0] clk_proc_bF$buf2 d_lut_CLKBUF1
ACLKBUF1_101 [clk_proc_hier0_bF$buf6] clk_proc_bF$buf1 d_lut_CLKBUF1
ACLKBUF1_102 [clk_proc_hier0_bF$buf5] clk_proc_bF$buf0 d_lut_CLKBUF1
ABUFX4_232 [_3217_] _3217__bF$buf7 d_lut_BUFX4
ABUFX4_233 [_3217_] _3217__bF$buf6 d_lut_BUFX4
ABUFX4_234 [_3217_] _3217__bF$buf5 d_lut_BUFX4
ABUFX4_235 [_3217_] _3217__bF$buf4 d_lut_BUFX4
ABUFX4_236 [_3217_] _3217__bF$buf3 d_lut_BUFX4
ABUFX4_237 [_3217_] _3217__bF$buf2 d_lut_BUFX4
ABUFX4_238 [_3217_] _3217__bF$buf1 d_lut_BUFX4
ABUFX4_239 [_3217_] _3217__bF$buf0 d_lut_BUFX4
ABUFX4_240 [_1297_] _1297__bF$buf6 d_lut_BUFX4
ABUFX4_241 [_1297_] _1297__bF$buf5 d_lut_BUFX4
ABUFX4_242 [_1297_] _1297__bF$buf4 d_lut_BUFX4
ABUFX4_243 [_1297_] _1297__bF$buf3 d_lut_BUFX4
ABUFX4_244 [_1297_] _1297__bF$buf2 d_lut_BUFX4
ABUFX4_245 [_1297_] _1297__bF$buf1 d_lut_BUFX4
ABUFX4_246 [_1297_] _1297__bF$buf0 d_lut_BUFX4
ABUFX4_247 [_4877_] _4877__bF$buf7 d_lut_BUFX4
ABUFX4_248 [_4877_] _4877__bF$buf6 d_lut_BUFX4
ABUFX4_249 [_4877_] _4877__bF$buf5 d_lut_BUFX4
ABUFX4_250 [_4877_] _4877__bF$buf4 d_lut_BUFX4
ABUFX4_251 [_4877_] _4877__bF$buf3 d_lut_BUFX4
ABUFX4_252 [_4877_] _4877__bF$buf2 d_lut_BUFX4
ABUFX4_253 [_4877_] _4877__bF$buf1 d_lut_BUFX4
ABUFX4_254 [_4877_] _4877__bF$buf0 d_lut_BUFX4
ABUFX4_255 [_4495_] _4495__bF$buf4 d_lut_BUFX4
ABUFX4_256 [_4495_] _4495__bF$buf3 d_lut_BUFX4
ABUFX4_257 [_4495_] _4495__bF$buf2 d_lut_BUFX4
ABUFX4_258 [_4495_] _4495__bF$buf1 d_lut_BUFX4
ABUFX4_259 [_4495_] _4495__bF$buf0 d_lut_BUFX4
ABUFX4_260 [_4610_] _4610__bF$buf7 d_lut_BUFX4
ABUFX4_261 [_4610_] _4610__bF$buf6 d_lut_BUFX4
ABUFX4_262 [_4610_] _4610__bF$buf5 d_lut_BUFX4
ABUFX4_263 [_4610_] _4610__bF$buf4 d_lut_BUFX4
ABUFX4_264 [_4610_] _4610__bF$buf3 d_lut_BUFX4
ABUFX4_265 [_4610_] _4610__bF$buf2 d_lut_BUFX4
ABUFX4_266 [_4610_] _4610__bF$buf1 d_lut_BUFX4
ABUFX4_267 [_4610_] _4610__bF$buf0 d_lut_BUFX4
ABUFX4_268 [_3058_] _3058__bF$buf7 d_lut_BUFX4
ABUFX4_269 [_3058_] _3058__bF$buf6 d_lut_BUFX4
ABUFX4_270 [_3058_] _3058__bF$buf5 d_lut_BUFX4
ABUFX4_271 [_3058_] _3058__bF$buf4 d_lut_BUFX4
ABUFX4_272 [_3058_] _3058__bF$buf3 d_lut_BUFX4
ABUFX4_273 [_3058_] _3058__bF$buf2 d_lut_BUFX4
ABUFX4_274 [_3058_] _3058__bF$buf1 d_lut_BUFX4
ABUFX4_275 [_3058_] _3058__bF$buf0 d_lut_BUFX4
ABUFX4_276 [_2499_] _2499__bF$buf5 d_lut_BUFX4
ABUFX4_277 [_2499_] _2499__bF$buf4 d_lut_BUFX4
ABUFX4_278 [_2499_] _2499__bF$buf3 d_lut_BUFX4
ABUFX4_279 [_2499_] _2499__bF$buf2 d_lut_BUFX4
ABUFX4_280 [_2499_] _2499__bF$buf1 d_lut_BUFX4
ABUFX4_281 [_2499_] _2499__bF$buf0 d_lut_BUFX4
ABUFX4_282 [_4645_] _4645__bF$buf3 d_lut_BUFX4
ABUFX4_283 [_4645_] _4645__bF$buf2 d_lut_BUFX4
ABUFX4_284 [_4645_] _4645__bF$buf1 d_lut_BUFX4
ABUFX4_285 [_4645_] _4645__bF$buf0 d_lut_BUFX4
ABUFX4_286 [_4492_] _4492__bF$buf4 d_lut_BUFX4
ABUFX4_287 [_4492_] _4492__bF$buf3 d_lut_BUFX4
ABUFX4_288 [_4492_] _4492__bF$buf2 d_lut_BUFX4
ABUFX4_289 [_4492_] _4492__bF$buf1 d_lut_BUFX4
ABUFX4_290 [_4492_] _4492__bF$buf0 d_lut_BUFX4
ABUFX4_291 [_4510_] _4510__bF$buf3 d_lut_BUFX4
ABUFX4_292 [_4510_] _4510__bF$buf2 d_lut_BUFX4
ABUFX4_293 [_4510_] _4510__bF$buf1 d_lut_BUFX4
ABUFX4_294 [_4510_] _4510__bF$buf0 d_lut_BUFX4
ABUFX4_295 [_355_] _355__bF$buf5 d_lut_BUFX4
ABUFX4_296 [_355_] _355__bF$buf4 d_lut_BUFX4
ABUFX4_297 [_355_] _355__bF$buf3 d_lut_BUFX4
ABUFX4_298 [_355_] _355__bF$buf2 d_lut_BUFX4
ABUFX4_299 [_355_] _355__bF$buf1 d_lut_BUFX4
ABUFX4_300 [_355_] _355__bF$buf0 d_lut_BUFX4
ABUFX4_301 [_584_] _584__bF$buf5 d_lut_BUFX4
ABUFX4_302 [_584_] _584__bF$buf4 d_lut_BUFX4
ABUFX4_303 [_584_] _584__bF$buf3 d_lut_BUFX4
ABUFX4_304 [_584_] _584__bF$buf2 d_lut_BUFX4
ABUFX4_305 [_584_] _584__bF$buf1 d_lut_BUFX4
ABUFX4_306 [_584_] _584__bF$buf0 d_lut_BUFX4
ABUFX4_307 [_4031_] _4031__bF$buf3 d_lut_BUFX4
ABUFX4_308 [_4031_] _4031__bF$buf2 d_lut_BUFX4
ABUFX4_309 [_4031_] _4031__bF$buf1 d_lut_BUFX4
ABUFX4_310 [_4031_] _4031__bF$buf0 d_lut_BUFX4
ABUFX4_311 [_4507_] _4507__bF$buf3 d_lut_BUFX4
ABUFX4_312 [_4507_] _4507__bF$buf2 d_lut_BUFX4
ABUFX4_313 [_4507_] _4507__bF$buf1 d_lut_BUFX4
ABUFX4_314 [_4507_] _4507__bF$buf0 d_lut_BUFX4
ABUFX4_315 [_9_] _9__bF$buf7 d_lut_BUFX4
ABUFX4_316 [_9_] _9__bF$buf6 d_lut_BUFX4
ABUFX4_317 [_9_] _9__bF$buf5 d_lut_BUFX4
ABUFX4_318 [_9_] _9__bF$buf4 d_lut_BUFX4
ABUFX4_319 [_9_] _9__bF$buf3 d_lut_BUFX4
ABUFX4_320 [_9_] _9__bF$buf2 d_lut_BUFX4
ABUFX4_321 [_9_] _9__bF$buf1 d_lut_BUFX4
ABUFX4_322 [_9_] _9__bF$buf0 d_lut_BUFX4
ABUFX4_323 [_3090_] _3090__bF$buf7 d_lut_BUFX4
ABUFX4_324 [_3090_] _3090__bF$buf6 d_lut_BUFX4
ABUFX4_325 [_3090_] _3090__bF$buf5 d_lut_BUFX4
ABUFX4_326 [_3090_] _3090__bF$buf4 d_lut_BUFX4
ABUFX4_327 [_3090_] _3090__bF$buf3 d_lut_BUFX4
ABUFX4_328 [_3090_] _3090__bF$buf2 d_lut_BUFX4
ABUFX4_329 [_3090_] _3090__bF$buf1 d_lut_BUFX4
ABUFX4_330 [_3090_] _3090__bF$buf0 d_lut_BUFX4
ABUFX4_331 [_581_] _581__bF$buf4 d_lut_BUFX4
ABUFX4_332 [_581_] _581__bF$buf3 d_lut_BUFX4
ABUFX4_333 [_581_] _581__bF$buf2 d_lut_BUFX4
ABUFX4_334 [_581_] _581__bF$buf1 d_lut_BUFX4
ABUFX4_335 [_581_] _581__bF$buf0 d_lut_BUFX4
ABUFX4_336 [_4483_] _4483__bF$buf3 d_lut_BUFX4
ABUFX4_337 [_4483_] _4483__bF$buf2 d_lut_BUFX4
ABUFX4_338 [_4483_] _4483__bF$buf1 d_lut_BUFX4
ABUFX4_339 [_4483_] _4483__bF$buf0 d_lut_BUFX4
ABUFX4_340 [_2258_] _2258__bF$buf7 d_lut_BUFX4
ABUFX4_341 [_2258_] _2258__bF$buf6 d_lut_BUFX4
ABUFX4_342 [_2258_] _2258__bF$buf5 d_lut_BUFX4
ABUFX4_343 [_2258_] _2258__bF$buf4 d_lut_BUFX4
ABUFX4_344 [_2258_] _2258__bF$buf3 d_lut_BUFX4
ABUFX4_345 [_2258_] _2258__bF$buf2 d_lut_BUFX4
ABUFX4_346 [_2258_] _2258__bF$buf1 d_lut_BUFX4
ABUFX4_347 [_2258_] _2258__bF$buf0 d_lut_BUFX4
ACLKBUF1_103 [u_data_processor.clk_gated] u_data_processor.clk_gated_bF$buf5 d_lut_CLKBUF1
ACLKBUF1_104 [u_data_processor.clk_gated] u_data_processor.clk_gated_bF$buf4 d_lut_CLKBUF1
ACLKBUF1_105 [u_data_processor.clk_gated] u_data_processor.clk_gated_bF$buf3 d_lut_CLKBUF1
ACLKBUF1_106 [u_data_processor.clk_gated] u_data_processor.clk_gated_bF$buf2 d_lut_CLKBUF1
ACLKBUF1_107 [u_data_processor.clk_gated] u_data_processor.clk_gated_bF$buf1 d_lut_CLKBUF1
ACLKBUF1_108 [u_data_processor.clk_gated] u_data_processor.clk_gated_bF$buf0 d_lut_CLKBUF1
ABUFX4_348 [_3140_] _3140__bF$buf7 d_lut_BUFX4
ABUFX4_349 [_3140_] _3140__bF$buf6 d_lut_BUFX4
ABUFX4_350 [_3140_] _3140__bF$buf5 d_lut_BUFX4
ABUFX4_351 [_3140_] _3140__bF$buf4 d_lut_BUFX4
ABUFX4_352 [_3140_] _3140__bF$buf3 d_lut_BUFX4
ABUFX4_353 [_3140_] _3140__bF$buf2 d_lut_BUFX4
ABUFX4_354 [_3140_] _3140__bF$buf1 d_lut_BUFX4
ABUFX4_355 [_3140_] _3140__bF$buf0 d_lut_BUFX4
ABUFX4_356 [_4019_] _4019__bF$buf3 d_lut_BUFX4
ABUFX4_357 [_4019_] _4019__bF$buf2 d_lut_BUFX4
ABUFX4_358 [_4019_] _4019__bF$buf1 d_lut_BUFX4
ABUFX4_359 [_4019_] _4019__bF$buf0 d_lut_BUFX4