*SPICE netlist created from BLIF module vega_top by blif2BSpice
.include /apps/vlsi/share/qflow/tech/osu035/osu035_stdcells.sp
.subckt vega_top vdd gnd clk rst_n ext_wakeup_in rtc_wakeup_in irq_wakeup_in ext_wakeup_en rtc_wakeup_en irq_wakeup_en thermal_alert battery_low fault_in psel penable pwrite paddr[0] paddr[1] paddr[2] paddr[3] paddr[4] paddr[5] paddr[6] paddr[7] pwdata[0] pwdata[1] pwdata[2] pwdata[3] pwdata[4] pwdata[5] pwdata[6] pwdata[7] pwdata[8] pwdata[9] pwdata[10] pwdata[11] pwdata[12] pwdata[13] pwdata[14] pwdata[15] pwdata[16] pwdata[17] pwdata[18] pwdata[19] pwdata[20] pwdata[21] pwdata[22] pwdata[23] pwdata[24] pwdata[25] pwdata[26] pwdata[27] pwdata[28] pwdata[29] pwdata[30] pwdata[31] reg_wr_en reg_rd_en reg_addr[0] reg_addr[1] reg_addr[2] reg_addr[3] reg_addr[4] reg_addr[5] reg_addr[6] reg_addr[7] reg_wdata[0] reg_wdata[1] reg_wdata[2] reg_wdata[3] reg_wdata[4] reg_wdata[5] reg_wdata[6] reg_wdata[7] reg_wdata[8] reg_wdata[9] reg_wdata[10] reg_wdata[11] reg_wdata[12] reg_wdata[13] reg_wdata[14] reg_wdata[15] reg_wdata[16] reg_wdata[17] reg_wdata[18] reg_wdata[19] reg_wdata[20] reg_wdata[21] reg_wdata[22] reg_wdata[23] reg_wdata[24] reg_wdata[25] reg_wdata[26] reg_wdata[27] reg_wdata[28] reg_wdata[29] reg_wdata[30] reg_wdata[31] sensor0_data[0] sensor0_data[1] sensor0_data[2] sensor0_data[3] sensor0_data[4] sensor0_data[5] sensor0_data[6] sensor0_data[7] sensor0_data[8] sensor0_data[9] sensor0_data[10] sensor0_data[11] sensor0_data[12] sensor0_data[13] sensor0_data[14] sensor0_data[15] sensor0_data[16] sensor0_data[17] sensor0_data[18] sensor0_data[19] sensor0_data[20] sensor0_data[21] sensor0_data[22] sensor0_data[23] sensor0_data[24] sensor0_data[25] sensor0_data[26] sensor0_data[27] sensor0_data[28] sensor0_data[29] sensor0_data[30] sensor0_data[31] sensor1_data[0] sensor1_data[1] sensor1_data[2] sensor1_data[3] sensor1_data[4] sensor1_data[5] sensor1_data[6] sensor1_data[7] sensor1_data[8] sensor1_data[9] sensor1_data[10] sensor1_data[11] sensor1_data[12] sensor1_data[13] sensor1_data[14] sensor1_data[15] sensor1_data[16] sensor1_data[17] sensor1_data[18] sensor1_data[19] sensor1_data[20] sensor1_data[21] sensor1_data[22] sensor1_data[23] sensor1_data[24] sensor1_data[25] sensor1_data[26] sensor1_data[27] sensor1_data[28] sensor1_data[29] sensor1_data[30] sensor1_data[31] sensor2_data[0] sensor2_data[1] sensor2_data[2] sensor2_data[3] sensor2_data[4] sensor2_data[5] sensor2_data[6] sensor2_data[7] sensor2_data[8] sensor2_data[9] sensor2_data[10] sensor2_data[11] sensor2_data[12] sensor2_data[13] sensor2_data[14] sensor2_data[15] sensor2_data[16] sensor2_data[17] sensor2_data[18] sensor2_data[19] sensor2_data[20] sensor2_data[21] sensor2_data[22] sensor2_data[23] sensor2_data[24] sensor2_data[25] sensor2_data[26] sensor2_data[27] sensor2_data[28] sensor2_data[29] sensor2_data[30] sensor2_data[31] prdata[0] prdata[1] prdata[2] prdata[3] prdata[4] prdata[5] prdata[6] prdata[7] prdata[8] prdata[9] prdata[10] prdata[11] prdata[12] prdata[13] prdata[14] prdata[15] prdata[16] prdata[17] prdata[18] prdata[19] prdata[20] prdata[21] prdata[22] prdata[23] prdata[24] prdata[25] prdata[26] prdata[27] prdata[28] prdata[29] prdata[30] prdata[31] pready pslverr reg_rdata[0] reg_rdata[1] reg_rdata[2] reg_rdata[3] reg_rdata[4] reg_rdata[5] reg_rdata[6] reg_rdata[7] reg_rdata[8] reg_rdata[9] reg_rdata[10] reg_rdata[11] reg_rdata[12] reg_rdata[13] reg_rdata[14] reg_rdata[15] reg_rdata[16] reg_rdata[17] reg_rdata[18] reg_rdata[19] reg_rdata[20] reg_rdata[21] reg_rdata[22] reg_rdata[23] reg_rdata[24] reg_rdata[25] reg_rdata[26] reg_rdata[27] reg_rdata[28] reg_rdata[29] reg_rdata[30] reg_rdata[31] reg_ack pmu_active pmu_sleeping pmu_fault pmu_state_out[0] pmu_state_out[1] pmu_state_out[2] pmu_state_out[3] irq_out wakeup_src_status[0] wakeup_src_status[1] wakeup_src_status[2] 
XBUFX4_1 vdd gnd rst_n rst_n_hier0_bF$buf8 BUFX4
XBUFX4_2 vdd gnd rst_n rst_n_hier0_bF$buf7 BUFX4
XBUFX4_3 vdd gnd rst_n rst_n_hier0_bF$buf6 BUFX4
XBUFX4_4 vdd gnd rst_n rst_n_hier0_bF$buf5 BUFX4
XBUFX4_5 vdd gnd rst_n rst_n_hier0_bF$buf4 BUFX4
XBUFX4_6 vdd gnd rst_n rst_n_hier0_bF$buf3 BUFX4
XBUFX4_7 vdd gnd rst_n rst_n_hier0_bF$buf2 BUFX4
XBUFX4_8 vdd gnd rst_n rst_n_hier0_bF$buf1 BUFX4
XBUFX4_9 vdd gnd rst_n rst_n_hier0_bF$buf0 BUFX4
XBUFX4_10 vdd gnd clk clk_hier0_bF$buf5 BUFX4
XBUFX4_11 vdd gnd clk clk_hier0_bF$buf4 BUFX4
XBUFX4_12 vdd gnd clk clk_hier0_bF$buf3 BUFX4
XBUFX4_13 vdd gnd clk clk_hier0_bF$buf2 BUFX4
XBUFX4_14 vdd gnd clk clk_hier0_bF$buf1 BUFX4
XBUFX4_15 vdd gnd clk clk_hier0_bF$buf0 BUFX4
XBUFX4_16 vdd gnd clk_proc clk_proc_hier0_bF$buf6 BUFX4
XBUFX4_17 vdd gnd clk_proc clk_proc_hier0_bF$buf5 BUFX4
XBUFX4_18 vdd gnd clk_proc clk_proc_hier0_bF$buf4 BUFX4
XBUFX4_19 vdd gnd clk_proc clk_proc_hier0_bF$buf3 BUFX4
XBUFX4_20 vdd gnd clk_proc clk_proc_hier0_bF$buf2 BUFX4
XBUFX4_21 vdd gnd clk_proc clk_proc_hier0_bF$buf1 BUFX4
XBUFX4_22 vdd gnd clk_proc clk_proc_hier0_bF$buf0 BUFX4
XBUFX4_23 vdd gnd u_data_processor.ctrl_reg[1] u_data_processor.ctrl_reg[1_bF$buf8] BUFX4
XBUFX4_24 vdd gnd u_data_processor.ctrl_reg[1] u_data_processor.ctrl_reg[1_bF$buf7] BUFX4
XBUFX4_25 vdd gnd u_data_processor.ctrl_reg[1] u_data_processor.ctrl_reg[1_bF$buf6] BUFX4
XBUFX4_26 vdd gnd u_data_processor.ctrl_reg[1] u_data_processor.ctrl_reg[1_bF$buf5] BUFX4
XBUFX4_27 vdd gnd u_data_processor.ctrl_reg[1] u_data_processor.ctrl_reg[1_bF$buf4] BUFX4
XBUFX4_28 vdd gnd u_data_processor.ctrl_reg[1] u_data_processor.ctrl_reg[1_bF$buf3] BUFX4
XBUFX4_29 vdd gnd u_data_processor.ctrl_reg[1] u_data_processor.ctrl_reg[1_bF$buf2] BUFX4
XBUFX4_30 vdd gnd u_data_processor.ctrl_reg[1] u_data_processor.ctrl_reg[1_bF$buf1] BUFX4
XBUFX4_31 vdd gnd u_data_processor.ctrl_reg[1] u_data_processor.ctrl_reg[1_bF$buf0] BUFX4
XBUFX4_32 vdd gnd _2271_ _2271__bF$buf4 BUFX4
XBUFX4_33 vdd gnd _2271_ _2271__bF$buf3 BUFX4
XBUFX4_34 vdd gnd _2271_ _2271__bF$buf2 BUFX4
XBUFX4_35 vdd gnd _2271_ _2271__bF$buf1 BUFX4
XBUFX4_36 vdd gnd _2271_ _2271__bF$buf0 BUFX4
XBUFX4_37 vdd gnd _4511_ _4511__bF$buf3 BUFX4
XBUFX4_38 vdd gnd _4511_ _4511__bF$buf2 BUFX4
XBUFX4_39 vdd gnd _4511_ _4511__bF$buf1 BUFX4
XBUFX4_40 vdd gnd _4511_ _4511__bF$buf0 BUFX4
XBUFX4_41 vdd gnd _585_ _585__bF$buf4 BUFX4
XBUFX4_42 vdd gnd _585_ _585__bF$buf3 BUFX4
XBUFX4_43 vdd gnd _585_ _585__bF$buf2 BUFX4
XBUFX4_44 vdd gnd _585_ _585__bF$buf1 BUFX4
XBUFX4_45 vdd gnd _585_ _585__bF$buf0 BUFX4
XBUFX4_46 vdd gnd _2497_ _2497__bF$buf5 BUFX4
XBUFX4_47 vdd gnd _2497_ _2497__bF$buf4 BUFX4
XBUFX4_48 vdd gnd _2497_ _2497__bF$buf3 BUFX4
XBUFX4_49 vdd gnd _2497_ _2497__bF$buf2 BUFX4
XBUFX4_50 vdd gnd _2497_ _2497__bF$buf1 BUFX4
XBUFX4_51 vdd gnd _2497_ _2497__bF$buf0 BUFX4
XBUFX4_52 vdd gnd _4546_ _4546__bF$buf3 BUFX4
XBUFX4_53 vdd gnd _4546_ _4546__bF$buf2 BUFX4
XBUFX4_54 vdd gnd _4546_ _4546__bF$buf1 BUFX4
XBUFX4_55 vdd gnd _4546_ _4546__bF$buf0 BUFX4
XBUFX4_56 vdd gnd _603_ _603__bF$buf3 BUFX4
XBUFX4_57 vdd gnd _603_ _603__bF$buf2 BUFX4
XBUFX4_58 vdd gnd _603_ _603__bF$buf1 BUFX4
XBUFX2_1 vdd gnd _603_ _603__bF$buf0 BUFX2
XBUFX4_59 vdd gnd rst_n_hier0_bF$buf2 rst_n_bF$buf84 BUFX4
XBUFX4_60 vdd gnd rst_n_hier0_bF$buf7 rst_n_bF$buf83 BUFX4
XBUFX4_61 vdd gnd rst_n_hier0_bF$buf3 rst_n_bF$buf82 BUFX4
XBUFX4_62 vdd gnd rst_n_hier0_bF$buf7 rst_n_bF$buf81 BUFX4
XBUFX4_63 vdd gnd rst_n_hier0_bF$buf1 rst_n_bF$buf80 BUFX4
XBUFX4_64 vdd gnd rst_n_hier0_bF$buf2 rst_n_bF$buf79 BUFX4
XBUFX4_65 vdd gnd rst_n_hier0_bF$buf0 rst_n_bF$buf78 BUFX4
XBUFX4_66 vdd gnd rst_n_hier0_bF$buf6 rst_n_bF$buf77 BUFX4
XBUFX4_67 vdd gnd rst_n_hier0_bF$buf3 rst_n_bF$buf76 BUFX4
XBUFX4_68 vdd gnd rst_n_hier0_bF$buf2 rst_n_bF$buf75 BUFX4
XBUFX4_69 vdd gnd rst_n_hier0_bF$buf7 rst_n_bF$buf74 BUFX4
XBUFX4_70 vdd gnd rst_n_hier0_bF$buf4 rst_n_bF$buf73 BUFX4
XBUFX4_71 vdd gnd rst_n_hier0_bF$buf8 rst_n_bF$buf72 BUFX4
XBUFX4_72 vdd gnd rst_n_hier0_bF$buf0 rst_n_bF$buf71 BUFX4
XBUFX4_73 vdd gnd rst_n_hier0_bF$buf7 rst_n_bF$buf70 BUFX4
XBUFX4_74 vdd gnd rst_n_hier0_bF$buf4 rst_n_bF$buf69 BUFX4
XBUFX4_75 vdd gnd rst_n_hier0_bF$buf5 rst_n_bF$buf68 BUFX4
XBUFX4_76 vdd gnd rst_n_hier0_bF$buf7 rst_n_bF$buf67 BUFX4
XBUFX4_77 vdd gnd rst_n_hier0_bF$buf0 rst_n_bF$buf66 BUFX4
XBUFX4_78 vdd gnd rst_n_hier0_bF$buf3 rst_n_bF$buf65 BUFX4
XBUFX4_79 vdd gnd rst_n_hier0_bF$buf3 rst_n_bF$buf64 BUFX4
XBUFX4_80 vdd gnd rst_n_hier0_bF$buf7 rst_n_bF$buf63 BUFX4
XBUFX4_81 vdd gnd rst_n_hier0_bF$buf5 rst_n_bF$buf62 BUFX4
XBUFX4_82 vdd gnd rst_n_hier0_bF$buf0 rst_n_bF$buf61 BUFX4
XBUFX4_83 vdd gnd rst_n_hier0_bF$buf2 rst_n_bF$buf60 BUFX4
XBUFX4_84 vdd gnd rst_n_hier0_bF$buf1 rst_n_bF$buf59 BUFX4
XBUFX4_85 vdd gnd rst_n_hier0_bF$buf1 rst_n_bF$buf58 BUFX4
XBUFX4_86 vdd gnd rst_n_hier0_bF$buf1 rst_n_bF$buf57 BUFX4
XBUFX4_87 vdd gnd rst_n_hier0_bF$buf5 rst_n_bF$buf56 BUFX4
XBUFX4_88 vdd gnd rst_n_hier0_bF$buf5 rst_n_bF$buf55 BUFX4
XBUFX4_89 vdd gnd rst_n_hier0_bF$buf0 rst_n_bF$buf54 BUFX4
XBUFX4_90 vdd gnd rst_n_hier0_bF$buf8 rst_n_bF$buf53 BUFX4
XBUFX4_91 vdd gnd rst_n_hier0_bF$buf4 rst_n_bF$buf52 BUFX4
XBUFX4_92 vdd gnd rst_n_hier0_bF$buf2 rst_n_bF$buf51 BUFX4
XBUFX4_93 vdd gnd rst_n_hier0_bF$buf7 rst_n_bF$buf50 BUFX4
XBUFX4_94 vdd gnd rst_n_hier0_bF$buf4 rst_n_bF$buf49 BUFX4
XBUFX4_95 vdd gnd rst_n_hier0_bF$buf0 rst_n_bF$buf48 BUFX4
XBUFX4_96 vdd gnd rst_n_hier0_bF$buf4 rst_n_bF$buf47 BUFX4
XBUFX4_97 vdd gnd rst_n_hier0_bF$buf3 rst_n_bF$buf46 BUFX4
XBUFX4_98 vdd gnd rst_n_hier0_bF$buf6 rst_n_bF$buf45 BUFX4
XBUFX4_99 vdd gnd rst_n_hier0_bF$buf7 rst_n_bF$buf44 BUFX4
XBUFX4_100 vdd gnd rst_n_hier0_bF$buf3 rst_n_bF$buf43 BUFX4
XBUFX4_101 vdd gnd rst_n_hier0_bF$buf8 rst_n_bF$buf42 BUFX4
XBUFX4_102 vdd gnd rst_n_hier0_bF$buf8 rst_n_bF$buf41 BUFX4
XBUFX4_103 vdd gnd rst_n_hier0_bF$buf3 rst_n_bF$buf40 BUFX4
XBUFX4_104 vdd gnd rst_n_hier0_bF$buf8 rst_n_bF$buf39 BUFX4
XBUFX4_105 vdd gnd rst_n_hier0_bF$buf8 rst_n_bF$buf38 BUFX4
XBUFX4_106 vdd gnd rst_n_hier0_bF$buf6 rst_n_bF$buf37 BUFX4
XBUFX4_107 vdd gnd rst_n_hier0_bF$buf5 rst_n_bF$buf36 BUFX4
XBUFX4_108 vdd gnd rst_n_hier0_bF$buf5 rst_n_bF$buf35 BUFX4
XBUFX4_109 vdd gnd rst_n_hier0_bF$buf3 rst_n_bF$buf34 BUFX4
XBUFX4_110 vdd gnd rst_n_hier0_bF$buf1 rst_n_bF$buf33 BUFX4
XBUFX4_111 vdd gnd rst_n_hier0_bF$buf4 rst_n_bF$buf32 BUFX4
XBUFX4_112 vdd gnd rst_n_hier0_bF$buf6 rst_n_bF$buf31 BUFX4
XBUFX4_113 vdd gnd rst_n_hier0_bF$buf6 rst_n_bF$buf30 BUFX4
XBUFX4_114 vdd gnd rst_n_hier0_bF$buf1 rst_n_bF$buf29 BUFX4
XBUFX4_115 vdd gnd rst_n_hier0_bF$buf1 rst_n_bF$buf28 BUFX4
XBUFX4_116 vdd gnd rst_n_hier0_bF$buf6 rst_n_bF$buf27 BUFX4
XBUFX4_117 vdd gnd rst_n_hier0_bF$buf1 rst_n_bF$buf26 BUFX4
XBUFX4_118 vdd gnd rst_n_hier0_bF$buf2 rst_n_bF$buf25 BUFX4
XBUFX4_119 vdd gnd rst_n_hier0_bF$buf0 rst_n_bF$buf24 BUFX4
XBUFX4_120 vdd gnd rst_n_hier0_bF$buf6 rst_n_bF$buf23 BUFX4
XBUFX4_121 vdd gnd rst_n_hier0_bF$buf5 rst_n_bF$buf22 BUFX4
XBUFX4_122 vdd gnd rst_n_hier0_bF$buf2 rst_n_bF$buf21 BUFX4
XBUFX4_123 vdd gnd rst_n_hier0_bF$buf8 rst_n_bF$buf20 BUFX4
XBUFX4_124 vdd gnd rst_n_hier0_bF$buf2 rst_n_bF$buf19 BUFX4
XBUFX4_125 vdd gnd rst_n_hier0_bF$buf0 rst_n_bF$buf18 BUFX4
XBUFX4_126 vdd gnd rst_n_hier0_bF$buf1 rst_n_bF$buf17 BUFX4
XBUFX4_127 vdd gnd rst_n_hier0_bF$buf6 rst_n_bF$buf16 BUFX4
XBUFX4_128 vdd gnd rst_n_hier0_bF$buf8 rst_n_bF$buf15 BUFX4
XBUFX4_129 vdd gnd rst_n_hier0_bF$buf3 rst_n_bF$buf14 BUFX4
XBUFX4_130 vdd gnd rst_n_hier0_bF$buf7 rst_n_bF$buf13 BUFX4
XBUFX4_131 vdd gnd rst_n_hier0_bF$buf5 rst_n_bF$buf12 BUFX4
XBUFX4_132 vdd gnd rst_n_hier0_bF$buf8 rst_n_bF$buf11 BUFX4
XBUFX4_133 vdd gnd rst_n_hier0_bF$buf4 rst_n_bF$buf10 BUFX4
XBUFX4_134 vdd gnd rst_n_hier0_bF$buf6 rst_n_bF$buf9 BUFX4
XBUFX4_135 vdd gnd rst_n_hier0_bF$buf5 rst_n_bF$buf8 BUFX4
XBUFX4_136 vdd gnd rst_n_hier0_bF$buf2 rst_n_bF$buf7 BUFX4
XBUFX4_137 vdd gnd rst_n_hier0_bF$buf4 rst_n_bF$buf6 BUFX4
XBUFX4_138 vdd gnd rst_n_hier0_bF$buf0 rst_n_bF$buf5 BUFX4
XBUFX4_139 vdd gnd rst_n_hier0_bF$buf4 rst_n_bF$buf4 BUFX4
XBUFX4_140 vdd gnd rst_n_hier0_bF$buf8 rst_n_bF$buf3 BUFX4
XBUFX4_141 vdd gnd rst_n_hier0_bF$buf7 rst_n_bF$buf2 BUFX4
XBUFX4_142 vdd gnd rst_n_hier0_bF$buf5 rst_n_bF$buf1 BUFX4
XBUFX4_143 vdd gnd rst_n_hier0_bF$buf6 rst_n_bF$buf0 BUFX4
XBUFX4_144 vdd gnd _4505_ _4505__bF$buf3 BUFX4
XBUFX4_145 vdd gnd _4505_ _4505__bF$buf2 BUFX4
XBUFX4_146 vdd gnd _4505_ _4505__bF$buf1 BUFX4
XBUFX4_147 vdd gnd _4505_ _4505__bF$buf0 BUFX4
XBUFX4_148 vdd gnd _4026_ _4026__bF$buf3 BUFX4
XBUFX4_149 vdd gnd _4026_ _4026__bF$buf2 BUFX4
XBUFX4_150 vdd gnd _4026_ _4026__bF$buf1 BUFX4
XBUFX4_151 vdd gnd _4026_ _4026__bF$buf0 BUFX4
XBUFX4_152 vdd gnd _1210_ _1210__bF$buf3 BUFX4
XBUFX4_153 vdd gnd _1210_ _1210__bF$buf2 BUFX4
XBUFX4_154 vdd gnd _1210_ _1210__bF$buf1 BUFX4
XBUFX4_155 vdd gnd _1210_ _1210__bF$buf0 BUFX4
XBUFX4_156 vdd gnd _4389_[0] _4389_[0_bF$buf5] BUFX4
XBUFX4_157 vdd gnd _4389_[0] _4389_[0_bF$buf4] BUFX4
XBUFX4_158 vdd gnd _4389_[0] _4389_[0_bF$buf3] BUFX4
XBUFX4_159 vdd gnd _4389_[0] _4389_[0_bF$buf2] BUFX4
XBUFX4_160 vdd gnd _4389_[0] _4389_[0_bF$buf1] BUFX4
XBUFX4_161 vdd gnd _4389_[0] _4389_[0_bF$buf0] BUFX4
XBUFX4_162 vdd gnd _2259_ _2259__bF$buf3 BUFX4
XBUFX4_163 vdd gnd _2259_ _2259__bF$buf2 BUFX4
XBUFX2_2 vdd gnd _2259_ _2259__bF$buf1 BUFX2
XBUFX2_3 vdd gnd _2259_ _2259__bF$buf0 BUFX2
XBUFX4_164 vdd gnd _4061_ _4061__bF$buf4 BUFX4
XBUFX4_165 vdd gnd _4061_ _4061__bF$buf3 BUFX4
XBUFX4_166 vdd gnd _4061_ _4061__bF$buf2 BUFX4
XBUFX4_167 vdd gnd _4061_ _4061__bF$buf1 BUFX4
XBUFX4_168 vdd gnd _4061_ _4061__bF$buf0 BUFX4
XBUFX4_169 vdd gnd _573_ _573__bF$buf4 BUFX4
XBUFX4_170 vdd gnd _573_ _573__bF$buf3 BUFX4
XBUFX4_171 vdd gnd _573_ _573__bF$buf2 BUFX4
XBUFX4_172 vdd gnd _573_ _573__bF$buf1 BUFX4
XBUFX4_173 vdd gnd _573_ _573__bF$buf0 BUFX4
XBUFX4_174 vdd gnd _1_ _1__bF$buf7 BUFX4
XBUFX4_175 vdd gnd _1_ _1__bF$buf6 BUFX4
XBUFX4_176 vdd gnd _1_ _1__bF$buf5 BUFX4
XBUFX4_177 vdd gnd _1_ _1__bF$buf4 BUFX4
XBUFX4_178 vdd gnd _1_ _1__bF$buf3 BUFX4
XBUFX4_179 vdd gnd _1_ _1__bF$buf2 BUFX4
XBUFX4_180 vdd gnd _1_ _1__bF$buf1 BUFX4
XBUFX4_181 vdd gnd _1_ _1__bF$buf0 BUFX4
XCLKBUF1_1 clk_hier0_bF$buf0 vdd gnd clk_bF$buf43 CLKBUF1
XCLKBUF1_2 clk_hier0_bF$buf1 vdd gnd clk_bF$buf42 CLKBUF1
XCLKBUF1_3 clk_hier0_bF$buf0 vdd gnd clk_bF$buf41 CLKBUF1
XCLKBUF1_4 clk_hier0_bF$buf2 vdd gnd clk_bF$buf40 CLKBUF1
XCLKBUF1_5 clk_hier0_bF$buf2 vdd gnd clk_bF$buf39 CLKBUF1
XCLKBUF1_6 clk_hier0_bF$buf3 vdd gnd clk_bF$buf38 CLKBUF1
XCLKBUF1_7 clk_hier0_bF$buf3 vdd gnd clk_bF$buf37 CLKBUF1
XCLKBUF1_8 clk_hier0_bF$buf0 vdd gnd clk_bF$buf36 CLKBUF1
XCLKBUF1_9 clk_hier0_bF$buf2 vdd gnd clk_bF$buf35 CLKBUF1
XCLKBUF1_10 clk_hier0_bF$buf0 vdd gnd clk_bF$buf34 CLKBUF1
XCLKBUF1_11 clk_hier0_bF$buf1 vdd gnd clk_bF$buf33 CLKBUF1
XCLKBUF1_12 clk_hier0_bF$buf0 vdd gnd clk_bF$buf32 CLKBUF1
XCLKBUF1_13 clk_hier0_bF$buf5 vdd gnd clk_bF$buf31 CLKBUF1
XCLKBUF1_14 clk_hier0_bF$buf5 vdd gnd clk_bF$buf30 CLKBUF1
XCLKBUF1_15 clk_hier0_bF$buf4 vdd gnd clk_bF$buf29 CLKBUF1
XCLKBUF1_16 clk_hier0_bF$buf4 vdd gnd clk_bF$buf28 CLKBUF1
XCLKBUF1_17 clk_hier0_bF$buf0 vdd gnd clk_bF$buf27 CLKBUF1
XCLKBUF1_18 clk_hier0_bF$buf1 vdd gnd clk_bF$buf26 CLKBUF1
XCLKBUF1_19 clk_hier0_bF$buf3 vdd gnd clk_bF$buf25 CLKBUF1
XCLKBUF1_20 clk_hier0_bF$buf1 vdd gnd clk_bF$buf24 CLKBUF1
XCLKBUF1_21 clk_hier0_bF$buf4 vdd gnd clk_bF$buf23 CLKBUF1
XCLKBUF1_22 clk_hier0_bF$buf4 vdd gnd clk_bF$buf22 CLKBUF1
XCLKBUF1_23 clk_hier0_bF$buf0 vdd gnd clk_bF$buf21 CLKBUF1
XCLKBUF1_24 clk_hier0_bF$buf1 vdd gnd clk_bF$buf20 CLKBUF1
XCLKBUF1_25 clk_hier0_bF$buf2 vdd gnd clk_bF$buf19 CLKBUF1
XCLKBUF1_26 clk_hier0_bF$buf3 vdd gnd clk_bF$buf18 CLKBUF1
XCLKBUF1_27 clk_hier0_bF$buf5 vdd gnd clk_bF$buf17 CLKBUF1
XCLKBUF1_28 clk_hier0_bF$buf3 vdd gnd clk_bF$buf16 CLKBUF1
XCLKBUF1_29 clk_hier0_bF$buf3 vdd gnd clk_bF$buf15 CLKBUF1
XCLKBUF1_30 clk_hier0_bF$buf2 vdd gnd clk_bF$buf14 CLKBUF1
XCLKBUF1_31 clk_hier0_bF$buf5 vdd gnd clk_bF$buf13 CLKBUF1
XCLKBUF1_32 clk_hier0_bF$buf5 vdd gnd clk_bF$buf12 CLKBUF1
XCLKBUF1_33 clk_hier0_bF$buf3 vdd gnd clk_bF$buf11 CLKBUF1
XCLKBUF1_34 clk_hier0_bF$buf2 vdd gnd clk_bF$buf10 CLKBUF1
XCLKBUF1_35 clk_hier0_bF$buf4 vdd gnd clk_bF$buf9 CLKBUF1
XCLKBUF1_36 clk_hier0_bF$buf5 vdd gnd clk_bF$buf8 CLKBUF1
XCLKBUF1_37 clk_hier0_bF$buf1 vdd gnd clk_bF$buf7 CLKBUF1
XCLKBUF1_38 clk_hier0_bF$buf2 vdd gnd clk_bF$buf6 CLKBUF1
XCLKBUF1_39 clk_hier0_bF$buf1 vdd gnd clk_bF$buf5 CLKBUF1
XCLKBUF1_40 clk_hier0_bF$buf4 vdd gnd clk_bF$buf4 CLKBUF1
XCLKBUF1_41 clk_hier0_bF$buf4 vdd gnd clk_bF$buf3 CLKBUF1
XCLKBUF1_42 clk_hier0_bF$buf5 vdd gnd clk_bF$buf2 CLKBUF1
XCLKBUF1_43 clk_hier0_bF$buf4 vdd gnd clk_bF$buf1 CLKBUF1
XCLKBUF1_44 clk_hier0_bF$buf5 vdd gnd clk_bF$buf0 CLKBUF1
XBUFX4_182 vdd gnd _570_ _570__bF$buf4 BUFX4
XBUFX4_183 vdd gnd _570_ _570__bF$buf3 BUFX4
XBUFX4_184 vdd gnd _570_ _570__bF$buf2 BUFX4
XBUFX4_185 vdd gnd _570_ _570__bF$buf1 BUFX4
XBUFX4_186 vdd gnd _570_ _570__bF$buf0 BUFX4
XBUFX4_187 vdd gnd _2576_ _2576__bF$buf3 BUFX4
XBUFX4_188 vdd gnd _2576_ _2576__bF$buf2 BUFX4
XBUFX4_189 vdd gnd _2576_ _2576__bF$buf1 BUFX4
XBUFX4_190 vdd gnd _2576_ _2576__bF$buf0 BUFX4
XBUFX4_191 vdd gnd _567_ _567__bF$buf4 BUFX4
XBUFX4_192 vdd gnd _567_ _567__bF$buf3 BUFX4
XBUFX4_193 vdd gnd _567_ _567__bF$buf2 BUFX4
XBUFX4_194 vdd gnd _567_ _567__bF$buf1 BUFX4
XBUFX2_4 vdd gnd _567_ _567__bF$buf0 BUFX2
XBUFX4_195 vdd gnd _4757_ _4757__bF$buf7 BUFX4
XBUFX4_196 vdd gnd _4757_ _4757__bF$buf6 BUFX4
XBUFX4_197 vdd gnd _4757_ _4757__bF$buf5 BUFX4
XBUFX4_198 vdd gnd _4757_ _4757__bF$buf4 BUFX4
XBUFX4_199 vdd gnd _4757_ _4757__bF$buf3 BUFX4
XBUFX4_200 vdd gnd _4757_ _4757__bF$buf2 BUFX4
XBUFX4_201 vdd gnd _4757_ _4757__bF$buf1 BUFX4
XBUFX4_202 vdd gnd _4757_ _4757__bF$buf0 BUFX4
XBUFX4_203 vdd gnd _2212_ _2212__bF$buf3 BUFX4
XBUFX4_204 vdd gnd _2212_ _2212__bF$buf2 BUFX4
XBUFX4_205 vdd gnd _2212_ _2212__bF$buf1 BUFX4
XBUFX2_5 vdd gnd _2212_ _2212__bF$buf0 BUFX2
XBUFX4_206 vdd gnd _2209_ _2209__bF$buf4 BUFX4
XBUFX4_207 vdd gnd _2209_ _2209__bF$buf3 BUFX4
XBUFX4_208 vdd gnd _2209_ _2209__bF$buf2 BUFX4
XBUFX4_209 vdd gnd _2209_ _2209__bF$buf1 BUFX4
XBUFX4_210 vdd gnd _2209_ _2209__bF$buf0 BUFX4
XBUFX4_211 vdd gnd _4011_ _4011__bF$buf4 BUFX4
XBUFX4_212 vdd gnd _4011_ _4011__bF$buf3 BUFX4
XBUFX4_213 vdd gnd _4011_ _4011__bF$buf2 BUFX4
XBUFX4_214 vdd gnd _4011_ _4011__bF$buf1 BUFX4
XBUFX4_215 vdd gnd _4011_ _4011__bF$buf0 BUFX4
XBUFX4_216 vdd gnd _599_ _599__bF$buf4 BUFX4
XBUFX4_217 vdd gnd _599_ _599__bF$buf3 BUFX4
XBUFX4_218 vdd gnd _599_ _599__bF$buf2 BUFX4
XBUFX4_219 vdd gnd _599_ _599__bF$buf1 BUFX4
XBUFX4_220 vdd gnd _599_ _599__bF$buf0 BUFX4
XBUFX4_221 vdd gnd _2206_ _2206__bF$buf3 BUFX4
XBUFX4_222 vdd gnd _2206_ _2206__bF$buf2 BUFX4
XBUFX4_223 vdd gnd _2206_ _2206__bF$buf1 BUFX4
XBUFX4_224 vdd gnd _2206_ _2206__bF$buf0 BUFX4
XBUFX4_225 vdd gnd _2376_ _2376__bF$buf6 BUFX4
XBUFX4_226 vdd gnd _2376_ _2376__bF$buf5 BUFX4
XBUFX4_227 vdd gnd _2376_ _2376__bF$buf4 BUFX4
XBUFX4_228 vdd gnd _2376_ _2376__bF$buf3 BUFX4
XBUFX4_229 vdd gnd _2376_ _2376__bF$buf2 BUFX4
XBUFX4_230 vdd gnd _2376_ _2376__bF$buf1 BUFX4
XBUFX4_231 vdd gnd _2376_ _2376__bF$buf0 BUFX4
XCLKBUF1_45 clk_proc_hier0_bF$buf5 vdd gnd clk_proc_bF$buf57 CLKBUF1
XCLKBUF1_46 clk_proc_hier0_bF$buf5 vdd gnd clk_proc_bF$buf56 CLKBUF1
XCLKBUF1_47 clk_proc_hier0_bF$buf0 vdd gnd clk_proc_bF$buf55 CLKBUF1
XCLKBUF1_48 clk_proc_hier0_bF$buf6 vdd gnd clk_proc_bF$buf54 CLKBUF1
XCLKBUF1_49 clk_proc_hier0_bF$buf6 vdd gnd clk_proc_bF$buf53 CLKBUF1
XCLKBUF1_50 clk_proc_hier0_bF$buf1 vdd gnd clk_proc_bF$buf52 CLKBUF1
XCLKBUF1_51 clk_proc_hier0_bF$buf4 vdd gnd clk_proc_bF$buf51 CLKBUF1
XCLKBUF1_52 clk_proc_hier0_bF$buf2 vdd gnd clk_proc_bF$buf50 CLKBUF1
XCLKBUF1_53 clk_proc_hier0_bF$buf6 vdd gnd clk_proc_bF$buf49 CLKBUF1
XCLKBUF1_54 clk_proc_hier0_bF$buf0 vdd gnd clk_proc_bF$buf48 CLKBUF1
XCLKBUF1_55 clk_proc_hier0_bF$buf3 vdd gnd clk_proc_bF$buf47 CLKBUF1
XCLKBUF1_56 clk_proc_hier0_bF$buf1 vdd gnd clk_proc_bF$buf46 CLKBUF1
XCLKBUF1_57 clk_proc_hier0_bF$buf5 vdd gnd clk_proc_bF$buf45 CLKBUF1
XCLKBUF1_58 clk_proc_hier0_bF$buf4 vdd gnd clk_proc_bF$buf44 CLKBUF1
XCLKBUF1_59 clk_proc_hier0_bF$buf5 vdd gnd clk_proc_bF$buf43 CLKBUF1
XCLKBUF1_60 clk_proc_hier0_bF$buf2 vdd gnd clk_proc_bF$buf42 CLKBUF1
XCLKBUF1_61 clk_proc_hier0_bF$buf1 vdd gnd clk_proc_bF$buf41 CLKBUF1
XCLKBUF1_62 clk_proc_hier0_bF$buf5 vdd gnd clk_proc_bF$buf40 CLKBUF1
XCLKBUF1_63 clk_proc_hier0_bF$buf6 vdd gnd clk_proc_bF$buf39 CLKBUF1
XCLKBUF1_64 clk_proc_hier0_bF$buf4 vdd gnd clk_proc_bF$buf38 CLKBUF1
XCLKBUF1_65 clk_proc_hier0_bF$buf4 vdd gnd clk_proc_bF$buf37 CLKBUF1
XCLKBUF1_66 clk_proc_hier0_bF$buf0 vdd gnd clk_proc_bF$buf36 CLKBUF1
XCLKBUF1_67 clk_proc_hier0_bF$buf2 vdd gnd clk_proc_bF$buf35 CLKBUF1
XCLKBUF1_68 clk_proc_hier0_bF$buf3 vdd gnd clk_proc_bF$buf34 CLKBUF1
XCLKBUF1_69 clk_proc_hier0_bF$buf3 vdd gnd clk_proc_bF$buf33 CLKBUF1
XCLKBUF1_70 clk_proc_hier0_bF$buf2 vdd gnd clk_proc_bF$buf32 CLKBUF1
XCLKBUF1_71 clk_proc_hier0_bF$buf4 vdd gnd clk_proc_bF$buf31 CLKBUF1
XCLKBUF1_72 clk_proc_hier0_bF$buf2 vdd gnd clk_proc_bF$buf30 CLKBUF1
XCLKBUF1_73 clk_proc_hier0_bF$buf3 vdd gnd clk_proc_bF$buf29 CLKBUF1
XCLKBUF1_74 clk_proc_hier0_bF$buf1 vdd gnd clk_proc_bF$buf28 CLKBUF1
XCLKBUF1_75 clk_proc_hier0_bF$buf1 vdd gnd clk_proc_bF$buf27 CLKBUF1
XCLKBUF1_76 clk_proc_hier0_bF$buf4 vdd gnd clk_proc_bF$buf26 CLKBUF1
XCLKBUF1_77 clk_proc_hier0_bF$buf0 vdd gnd clk_proc_bF$buf25 CLKBUF1
XCLKBUF1_78 clk_proc_hier0_bF$buf0 vdd gnd clk_proc_bF$buf24 CLKBUF1
XCLKBUF1_79 clk_proc_hier0_bF$buf2 vdd gnd clk_proc_bF$buf23 CLKBUF1
XCLKBUF1_80 clk_proc_hier0_bF$buf6 vdd gnd clk_proc_bF$buf22 CLKBUF1
XCLKBUF1_81 clk_proc_hier0_bF$buf4 vdd gnd clk_proc_bF$buf21 CLKBUF1
XCLKBUF1_82 clk_proc_hier0_bF$buf3 vdd gnd clk_proc_bF$buf20 CLKBUF1
XCLKBUF1_83 clk_proc_hier0_bF$buf3 vdd gnd clk_proc_bF$buf19 CLKBUF1
XCLKBUF1_84 clk_proc_hier0_bF$buf6 vdd gnd clk_proc_bF$buf18 CLKBUF1
XCLKBUF1_85 clk_proc_hier0_bF$buf0 vdd gnd clk_proc_bF$buf17 CLKBUF1
XCLKBUF1_86 clk_proc_hier0_bF$buf6 vdd gnd clk_proc_bF$buf16 CLKBUF1
XCLKBUF1_87 clk_proc_hier0_bF$buf5 vdd gnd clk_proc_bF$buf15 CLKBUF1
XCLKBUF1_88 clk_proc_hier0_bF$buf1 vdd gnd clk_proc_bF$buf14 CLKBUF1
XCLKBUF1_89 clk_proc_hier0_bF$buf6 vdd gnd clk_proc_bF$buf13 CLKBUF1
XCLKBUF1_90 clk_proc_hier0_bF$buf1 vdd gnd clk_proc_bF$buf12 CLKBUF1
XCLKBUF1_91 clk_proc_hier0_bF$buf0 vdd gnd clk_proc_bF$buf11 CLKBUF1
XCLKBUF1_92 clk_proc_hier0_bF$buf1 vdd gnd clk_proc_bF$buf10 CLKBUF1
XCLKBUF1_93 clk_proc_hier0_bF$buf6 vdd gnd clk_proc_bF$buf9 CLKBUF1
XCLKBUF1_94 clk_proc_hier0_bF$buf3 vdd gnd clk_proc_bF$buf8 CLKBUF1
XCLKBUF1_95 clk_proc_hier0_bF$buf4 vdd gnd clk_proc_bF$buf7 CLKBUF1
XCLKBUF1_96 clk_proc_hier0_bF$buf5 vdd gnd clk_proc_bF$buf6 CLKBUF1
XCLKBUF1_97 clk_proc_hier0_bF$buf2 vdd gnd clk_proc_bF$buf5 CLKBUF1
XCLKBUF1_98 clk_proc_hier0_bF$buf5 vdd gnd clk_proc_bF$buf4 CLKBUF1
XCLKBUF1_99 clk_proc_hier0_bF$buf0 vdd gnd clk_proc_bF$buf3 CLKBUF1
XCLKBUF1_100 clk_proc_hier0_bF$buf2 vdd gnd clk_proc_bF$buf2 CLKBUF1
XCLKBUF1_101 clk_proc_hier0_bF$buf5 vdd gnd clk_proc_bF$buf1 CLKBUF1
XCLKBUF1_102 clk_proc_hier0_bF$buf3 vdd gnd clk_proc_bF$buf0 CLKBUF1
XBUFX4_232 vdd gnd _3217_ _3217__bF$buf7 BUFX4
XBUFX4_233 vdd gnd _3217_ _3217__bF$buf6 BUFX4
XBUFX4_234 vdd gnd _3217_ _3217__bF$buf5 BUFX4
XBUFX4_235 vdd gnd _3217_ _3217__bF$buf4 BUFX4
XBUFX4_236 vdd gnd _3217_ _3217__bF$buf3 BUFX4
XBUFX4_237 vdd gnd _3217_ _3217__bF$buf2 BUFX4
XBUFX4_238 vdd gnd _3217_ _3217__bF$buf1 BUFX4
XBUFX4_239 vdd gnd _3217_ _3217__bF$buf0 BUFX4
XBUFX4_240 vdd gnd _1297_ _1297__bF$buf6 BUFX4
XBUFX4_241 vdd gnd _1297_ _1297__bF$buf5 BUFX4
XBUFX4_242 vdd gnd _1297_ _1297__bF$buf4 BUFX4
XBUFX4_243 vdd gnd _1297_ _1297__bF$buf3 BUFX4
XBUFX4_244 vdd gnd _1297_ _1297__bF$buf2 BUFX4
XBUFX4_245 vdd gnd _1297_ _1297__bF$buf1 BUFX4
XBUFX4_246 vdd gnd _1297_ _1297__bF$buf0 BUFX4
XBUFX4_247 vdd gnd _4877_ _4877__bF$buf7 BUFX4
XBUFX4_248 vdd gnd _4877_ _4877__bF$buf6 BUFX4
XBUFX4_249 vdd gnd _4877_ _4877__bF$buf5 BUFX4
XBUFX4_250 vdd gnd _4877_ _4877__bF$buf4 BUFX4
XBUFX4_251 vdd gnd _4877_ _4877__bF$buf3 BUFX4
XBUFX4_252 vdd gnd _4877_ _4877__bF$buf2 BUFX4
XBUFX4_253 vdd gnd _4877_ _4877__bF$buf1 BUFX4
XBUFX4_254 vdd gnd _4877_ _4877__bF$buf0 BUFX4
XBUFX4_255 vdd gnd _4495_ _4495__bF$buf4 BUFX4
XBUFX4_256 vdd gnd _4495_ _4495__bF$buf3 BUFX4
XBUFX4_257 vdd gnd _4495_ _4495__bF$buf2 BUFX4
XBUFX4_258 vdd gnd _4495_ _4495__bF$buf1 BUFX4
XBUFX4_259 vdd gnd _4495_ _4495__bF$buf0 BUFX4
XBUFX4_260 vdd gnd _4610_ _4610__bF$buf7 BUFX4
XBUFX4_261 vdd gnd _4610_ _4610__bF$buf6 BUFX4
XBUFX4_262 vdd gnd _4610_ _4610__bF$buf5 BUFX4
XBUFX4_263 vdd gnd _4610_ _4610__bF$buf4 BUFX4
XBUFX4_264 vdd gnd _4610_ _4610__bF$buf3 BUFX4
XBUFX4_265 vdd gnd _4610_ _4610__bF$buf2 BUFX4
XBUFX4_266 vdd gnd _4610_ _4610__bF$buf1 BUFX4
XBUFX4_267 vdd gnd _4610_ _4610__bF$buf0 BUFX4
XBUFX4_268 vdd gnd _3058_ _3058__bF$buf7 BUFX4
XBUFX4_269 vdd gnd _3058_ _3058__bF$buf6 BUFX4
XBUFX4_270 vdd gnd _3058_ _3058__bF$buf5 BUFX4
XBUFX4_271 vdd gnd _3058_ _3058__bF$buf4 BUFX4
XBUFX4_272 vdd gnd _3058_ _3058__bF$buf3 BUFX4
XBUFX4_273 vdd gnd _3058_ _3058__bF$buf2 BUFX4
XBUFX4_274 vdd gnd _3058_ _3058__bF$buf1 BUFX4
XBUFX4_275 vdd gnd _3058_ _3058__bF$buf0 BUFX4
XBUFX4_276 vdd gnd _2499_ _2499__bF$buf5 BUFX4
XBUFX4_277 vdd gnd _2499_ _2499__bF$buf4 BUFX4
XBUFX4_278 vdd gnd _2499_ _2499__bF$buf3 BUFX4
XBUFX4_279 vdd gnd _2499_ _2499__bF$buf2 BUFX4
XBUFX4_280 vdd gnd _2499_ _2499__bF$buf1 BUFX4
XBUFX4_281 vdd gnd _2499_ _2499__bF$buf0 BUFX4
XBUFX4_282 vdd gnd _4645_ _4645__bF$buf3 BUFX4
XBUFX4_283 vdd gnd _4645_ _4645__bF$buf2 BUFX4
XBUFX4_284 vdd gnd _4645_ _4645__bF$buf1 BUFX4
XBUFX4_285 vdd gnd _4645_ _4645__bF$buf0 BUFX4
XBUFX4_286 vdd gnd _4492_ _4492__bF$buf4 BUFX4
XBUFX4_287 vdd gnd _4492_ _4492__bF$buf3 BUFX4
XBUFX4_288 vdd gnd _4492_ _4492__bF$buf2 BUFX4
XBUFX4_289 vdd gnd _4492_ _4492__bF$buf1 BUFX4
XBUFX4_290 vdd gnd _4492_ _4492__bF$buf0 BUFX4
XBUFX4_291 vdd gnd _4510_ _4510__bF$buf3 BUFX4
XBUFX4_292 vdd gnd _4510_ _4510__bF$buf2 BUFX4
XBUFX4_293 vdd gnd _4510_ _4510__bF$buf1 BUFX4
XBUFX4_294 vdd gnd _4510_ _4510__bF$buf0 BUFX4
XBUFX4_295 vdd gnd _355_ _355__bF$buf5 BUFX4
XBUFX4_296 vdd gnd _355_ _355__bF$buf4 BUFX4
XBUFX4_297 vdd gnd _355_ _355__bF$buf3 BUFX4
XBUFX4_298 vdd gnd _355_ _355__bF$buf2 BUFX4
XBUFX4_299 vdd gnd _355_ _355__bF$buf1 BUFX4
XBUFX4_300 vdd gnd _355_ _355__bF$buf0 BUFX4
XBUFX4_301 vdd gnd _584_ _584__bF$buf5 BUFX4
XBUFX4_302 vdd gnd _584_ _584__bF$buf4 BUFX4
XBUFX4_303 vdd gnd _584_ _584__bF$buf3 BUFX4
XBUFX4_304 vdd gnd _584_ _584__bF$buf2 BUFX4
XBUFX4_305 vdd gnd _584_ _584__bF$buf1 BUFX4
XBUFX4_306 vdd gnd _584_ _584__bF$buf0 BUFX4
XBUFX4_307 vdd gnd _4031_ _4031__bF$buf3 BUFX4
XBUFX4_308 vdd gnd _4031_ _4031__bF$buf2 BUFX4
XBUFX4_309 vdd gnd _4031_ _4031__bF$buf1 BUFX4
XBUFX4_310 vdd gnd _4031_ _4031__bF$buf0 BUFX4
XBUFX4_311 vdd gnd _4507_ _4507__bF$buf3 BUFX4
XBUFX4_312 vdd gnd _4507_ _4507__bF$buf2 BUFX4
XBUFX4_313 vdd gnd _4507_ _4507__bF$buf1 BUFX4
XBUFX4_314 vdd gnd _4507_ _4507__bF$buf0 BUFX4
XBUFX4_315 vdd gnd _9_ _9__bF$buf7 BUFX4
XBUFX4_316 vdd gnd _9_ _9__bF$buf6 BUFX4
XBUFX4_317 vdd gnd _9_ _9__bF$buf5 BUFX4
XBUFX4_318 vdd gnd _9_ _9__bF$buf4 BUFX4
XBUFX4_319 vdd gnd _9_ _9__bF$buf3 BUFX4
XBUFX4_320 vdd gnd _9_ _9__bF$buf2 BUFX4
XBUFX4_321 vdd gnd _9_ _9__bF$buf1 BUFX4
XBUFX4_322 vdd gnd _9_ _9__bF$buf0 BUFX4
XBUFX4_323 vdd gnd _3090_ _3090__bF$buf7 BUFX4
XBUFX4_324 vdd gnd _3090_ _3090__bF$buf6 BUFX4
XBUFX4_325 vdd gnd _3090_ _3090__bF$buf5 BUFX4
XBUFX4_326 vdd gnd _3090_ _3090__bF$buf4 BUFX4
XBUFX4_327 vdd gnd _3090_ _3090__bF$buf3 BUFX4
XBUFX4_328 vdd gnd _3090_ _3090__bF$buf2 BUFX4
XBUFX4_329 vdd gnd _3090_ _3090__bF$buf1 BUFX4
XBUFX4_330 vdd gnd _3090_ _3090__bF$buf0 BUFX4
XBUFX4_331 vdd gnd _581_ _581__bF$buf4 BUFX4
XBUFX4_332 vdd gnd _581_ _581__bF$buf3 BUFX4
XBUFX4_333 vdd gnd _581_ _581__bF$buf2 BUFX4
XBUFX4_334 vdd gnd _581_ _581__bF$buf1 BUFX4
XBUFX4_335 vdd gnd _581_ _581__bF$buf0 BUFX4
XBUFX4_336 vdd gnd _4483_ _4483__bF$buf3 BUFX4
XBUFX4_337 vdd gnd _4483_ _4483__bF$buf2 BUFX4
XBUFX4_338 vdd gnd _4483_ _4483__bF$buf1 BUFX4
XBUFX4_339 vdd gnd _4483_ _4483__bF$buf0 BUFX4
XBUFX4_340 vdd gnd _2258_ _2258__bF$buf7 BUFX4
XBUFX4_341 vdd gnd _2258_ _2258__bF$buf6 BUFX4
XBUFX4_342 vdd gnd _2258_ _2258__bF$buf5 BUFX4
XBUFX4_343 vdd gnd _2258_ _2258__bF$buf4 BUFX4
XBUFX4_344 vdd gnd _2258_ _2258__bF$buf3 BUFX4
XBUFX4_345 vdd gnd _2258_ _2258__bF$buf2 BUFX4
XBUFX4_346 vdd gnd _2258_ _2258__bF$buf1 BUFX4
XBUFX4_347 vdd gnd _2258_ _2258__bF$buf0 BUFX4
XCLKBUF1_103 u_data_processor.clk_gated vdd gnd u_data_processor.clk_gated_bF$buf5 CLKBUF1
XCLKBUF1_104 u_data_processor.clk_gated vdd gnd u_data_processor.clk_gated_bF$buf4 CLKBUF1
XCLKBUF1_105 u_data_processor.clk_gated vdd gnd u_data_processor.clk_gated_bF$buf3 CLKBUF1
XCLKBUF1_106 u_data_processor.clk_gated vdd gnd u_data_processor.clk_gated_bF$buf2 CLKBUF1
XCLKBUF1_107 u_data_processor.clk_gated vdd gnd u_data_processor.clk_gated_bF$buf1 CLKBUF1
XCLKBUF1_108 u_data_processor.clk_gated vdd gnd u_data_processor.clk_gated_bF$buf0 CLKBUF1
XBUFX4_348 vdd gnd _3140_ _3140__bF$buf7 BUFX4
XBUFX4_349 vdd gnd _3140_ _3140__bF$buf6 BUFX4
XBUFX4_350 vdd gnd _3140_ _3140__bF$buf5 BUFX4
XBUFX4_351 vdd gnd _3140_ _3140__bF$buf4 BUFX4
XBUFX4_352 vdd gnd _3140_ _3140__bF$buf3 BUFX4
XBUFX4_353 vdd gnd _3140_ _3140__bF$buf2 BUFX4
XBUFX4_354 vdd gnd _3140_ _3140__bF$buf1 BUFX4
XBUFX4_355 vdd gnd _3140_ _3140__bF$buf0 BUFX4
XBUFX4_356 vdd gnd _4019_ _4019__bF$buf3 BUFX4
XBUFX4_357 vdd gnd _4019_ _4019__bF$buf2 BUFX4
XBUFX4_358 vdd gnd _4019_ _4019__bF$buf1 BUFX4
XBUFX4_359 vdd gnd _4019_ _4019__bF$buf0 BUFX4
XBUFX4_360 vdd gnd _4477_ _4477__bF$buf4 BUFX4
XBUFX4_361 vdd gnd _4477_ _4477__bF$buf3 BUFX4
XBUFX4_362 vdd gnd _4477_ _4477__bF$buf2 BUFX4
XBUFX4_363 vdd gnd _4477_ _4477__bF$buf1 BUFX4
XBUFX4_364 vdd gnd _4477_ _4477__bF$buf0 BUFX4
XBUFX4_365 vdd gnd _3172_ _3172__bF$buf7 BUFX4
XBUFX4_366 vdd gnd _3172_ _3172__bF$buf6 BUFX4
XBUFX4_367 vdd gnd _3172_ _3172__bF$buf5 BUFX4
XBUFX4_368 vdd gnd _3172_ _3172__bF$buf4 BUFX4
XBUFX4_369 vdd gnd _3172_ _3172__bF$buf3 BUFX4
XBUFX4_370 vdd gnd _3172_ _3172__bF$buf2 BUFX4
XBUFX4_371 vdd gnd _3172_ _3172__bF$buf1 BUFX4